ver_1.2
     RDKit          3D

 17 18  0  0  0  0  0  0  0  0999 V2000
   13.5643   -1.6077   21.1349 C   0  0  0  0  0  0  0  0  0  0  0  0
   12.8413   -0.7755   22.1520 C   0  0  0  0  0  0  0  0  0  0  0  0
   13.5578   -0.0938   23.1471 C   0  0  0  0  0  0  0  0  0  0  0  0
   12.8901    0.7209   24.0657 C   0  0  0  0  0  0  0  0  0  0  0  0
   11.5055    0.8635   23.9955 C   0  0  0  0  0  0  0  0  0  0  0  0
   10.7870    0.1904   23.0051 C   0  0  0  0  0  0  0  0  0  0  0  0
    9.3835    0.3953   22.8924 N   0  0  0  0  0  0  0  0  0  0  0  0
    8.7772    0.4427   21.6022 C   0  0  0  0  0  0  0  0  0  0  0  0
    9.4852    0.2854   20.5720 O   0  0  0  0  0  0  0  0  0  0  0  0
    7.3773    0.7080   21.4847 N   0  0  0  0  0  0  0  0  0  0  0  0
    6.7250    0.7517   20.2151 C   0  0  0  0  0  0  0  0  0  0  0  0
    5.4229    1.2471   20.1193 C   0  0  0  0  0  0  0  0  0  0  0  0
    4.7924    1.2900   18.8779 C   0  0  0  0  0  0  0  0  0  0  0  0
    5.4668    0.8134   17.7517 C   0  0  0  0  0  0  0  0  0  0  0  0
    6.7296    0.3224   17.8644 N   0  0  0  0  0  0  0  0  0  0  0  0
    7.3701    0.2883   19.0618 C   0  0  0  0  0  0  0  0  0  0  0  0
   11.4520   -0.6144   22.0738 C   0  0  0  0  0  0  0  0  0  0  0  0
  1  2  1  0
  2  3  2  0
  3  4  1  0
  4  5  2  0
  5  6  1  0
  6  7  1  0
  6 17  2  0
  7  8  1  0
  8  9  2  0
  8 10  1  0
 10 11  1  0
 11 12  2  0
 12 13  1  0
 13 14  2  0
 14 15  1  0
 15 16  2  0
 16 11  1  0
 17  2  1  0
M  END
>  <original SMILES>  (1) 
Cc1cccc(NC(=O)Nc2cccnc2)c1

>  <ref_pdb>  (1) 
Mpro-x0305_TDFS.pdb

>  <ref_mols>  (1) 
Fragments that bits overlap with above a score threshold of 0.5.

>  <ref_url>  (1) 
https://github.com/Waztom/xchem-xCOS

>  <submitter_name>  (1) 
WTTD

>  <submitter_email>  (1) 
warren.thompson@diamond.ac.uk

>  <submitter_institution>  (1) 
Diamond Light Source

>  <generation_date>  (1) 
2020-07-05

>  <method>  (1) 
xCOSFS

>  <N_hits>  (1) 
The number of fragments that bits overlap with above a score threshold of 0.5.

>  <Score_1>  (1) 
The score is scaled by the number of bit atoms

>  <Score_2>  (1) 
The score is scaled by the number of bit atoms penalised by the fraction of feats matched the to total number feats clustered within a 1.0 angstrom threshold

>  <Score_3>  (1) 
The score is determined by the fraction of matching features to the clustered features within a 1.0 angstrom threshold.

>  <FeatStein>  (1) 
FeatureStein score

$$$$
Test_1
     RDKit          3D

 17 18  0  0  0  0  0  0  0  0999 V2000
   13.5560   -1.5758   21.1925 C   0  0  0  0  0  0  0  0  0  0  0  0
   12.8312   -0.7065   22.1768 C   0  0  0  0  0  0  0  0  0  0  0  0
   13.5474    0.0283   23.1335 C   0  0  0  0  0  0  0  0  0  0  0  0
   12.8774    0.8763   24.0198 C   0  0  0  0  0  0  0  0  0  0  0  0
   11.4907    0.9993   23.9551 C   0  0  0  0  0  0  0  0  0  0  0  0
   10.7723    0.2732   23.0026 C   0  0  0  0  0  0  0  0  0  0  0  0
    9.3657    0.4564   22.8929 N   0  0  0  0  0  0  0  0  0  0  0  0
    8.7532    0.4730   21.6048 C   0  0  0  0  0  0  0  0  0  0  0  0
    9.4589    0.3079   20.5742 O   0  0  0  0  0  0  0  0  0  0  0  0
    7.3492    0.7165   21.4890 N   0  0  0  0  0  0  0  0  0  0  0  0
    6.6908    0.7290   20.2219 C   0  0  0  0  0  0  0  0  0  0  0  0
    5.4093    1.2722   20.1097 C   0  0  0  0  0  0  0  0  0  0  0  0
    4.7729    1.2844   18.8706 C   0  0  0  0  0  0  0  0  0  0  0  0
    5.4200    0.7300   17.7642 C   0  0  0  0  0  0  0  0  0  0  0  0
    6.6626    0.1936   17.8933 N   0  0  0  0  0  0  0  0  0  0  0  0
    7.3090    0.1878   19.0880 C   0  0  0  0  0  0  0  0  0  0  0  0
   11.4395   -0.5654   22.1034 C   0  0  0  0  0  0  0  0  0  0  0  0
  1  2  1  0
  2  3  2  0
  3  4  1  0
  4  5  2  0
  5  6  1  0
  6  7  1  0
  6 17  2  0
  7  8  1  0
  8  9  2  0
  8 10  1  0
 10 11  1  0
 11 12  2  0
 12 13  1  0
 13 14  2  0
 14 15  1  0
 15 16  2  0
 16 11  1  0
 17  2  1  0
M  END
>  <original SMILES>  (2) 
Cc1cccc(NC(=O)Nc2cccnc2)c1

>  <ref_pdb>  (2) 
Mpro-x0305_TDFS.pdb

>  <ref_mols>  (2) 
x0107,x0434,x1093,x1249,x0678

>  <N_hits>  (2) 
5

>  <Score_1>  (2) 
18.2572

>  <Score_2>  (2) 
0.5216

>  <Score_3>  (2) 
0.0286

>  <FeatStein>  (2) 
0.5799

$$$$
Test_2
     RDKit          3D

 17 18  0  0  0  0  0  0  0  0999 V2000
   13.6922   -1.6451   21.0436 C   0  0  0  0  0  0  0  0  0  0  0  0
   12.9613   -0.8405   22.0771 C   0  0  0  0  0  0  0  0  0  0  0  0
   13.6725   -0.1554   23.0738 C   0  0  0  0  0  0  0  0  0  0  0  0
   12.9963    0.6340   24.0081 C   0  0  0  0  0  0  0  0  0  0  0  0
   11.6084    0.7480   23.9521 C   0  0  0  0  0  0  0  0  0  0  0  0
   10.8951    0.0715   22.9602 C   0  0  0  0  0  0  0  0  0  0  0  0
    9.4866    0.2479   22.8628 N   0  0  0  0  0  0  0  0  0  0  0  0
    8.8705    0.3219   21.5784 C   0  0  0  0  0  0  0  0  0  0  0  0
    9.5748    0.2130   20.5394 O   0  0  0  0  0  0  0  0  0  0  0  0
    7.4642    0.5589   21.4779 N   0  0  0  0  0  0  0  0  0  0  0  0
    6.8024    0.6275   20.2144 C   0  0  0  0  0  0  0  0  0  0  0  0
    5.4605    1.0090   20.1524 C   0  0  0  0  0  0  0  0  0  0  0  0
    4.8206    1.0769   18.9169 C   0  0  0  0  0  0  0  0  0  0  0  0
    5.5277    0.7382   17.7612 C   0  0  0  0  0  0  0  0  0  0  0  0
    6.8301    0.3564   17.8404 N   0  0  0  0  0  0  0  0  0  0  0  0
    7.4789    0.3010   19.0326 C   0  0  0  0  0  0  0  0  0  0  0  0
   11.5682   -0.7079   22.0134 C   0  0  0  0  0  0  0  0  0  0  0  0
  1  2  1  0
  2  3  2  0
  3  4  1  0
  4  5  2  0
  5  6  1  0
  6  7  1  0
  6 17  2  0
  7  8  1  0
  8  9  2  0
  8 10  1  0
 10 11  1  0
 11 12  2  0
 12 13  1  0
 13 14  2  0
 14 15  1  0
 15 16  2  0
 16 11  1  0
 17  2  1  0
M  END
>  <original SMILES>  (3) 
Cc1cccc(NC(=O)Nc2cccnc2)c1

>  <ref_pdb>  (3) 
Mpro-x0305_TDFS.pdb

>  <ref_mols>  (3) 
x1093,x0107,x0434,x0678,x0874

>  <N_hits>  (3) 
5

>  <Score_1>  (3) 
18.5282

>  <Score_2>  (3) 
0.5294

>  <Score_3>  (3) 
0.0286

>  <FeatStein>  (3) 
0.6086

$$$$
Test_3
     RDKit          3D

 17 18  0  0  0  0  0  0  0  0999 V2000
   13.7008   -1.6787   21.0686 C   0  0  0  0  0  0  0  0  0  0  0  0
   12.9626   -0.8664   22.0909 C   0  0  0  0  0  0  0  0  0  0  0  0
   13.6678   -0.1582   23.0756 C   0  0  0  0  0  0  0  0  0  0  0  0
   12.9844    0.6380   23.9989 C   0  0  0  0  0  0  0  0  0  0  0  0
   11.5952    0.7357   23.9437 C   0  0  0  0  0  0  0  0  0  0  0  0
   10.8878    0.0360   22.9637 C   0  0  0  0  0  0  0  0  0  0  0  0
    9.4773    0.1952   22.8660 N   0  0  0  0  0  0  0  0  0  0  0  0
    8.8602    0.2591   21.5816 C   0  0  0  0  0  0  0  0  0  0  0  0
    9.5657    0.1565   20.5427 O   0  0  0  0  0  0  0  0  0  0  0  0
    7.4511    0.4789   21.4808 N   0  0  0  0  0  0  0  0  0  0  0  0
    6.7884    0.5368   20.2173 C   0  0  0  0  0  0  0  0  0  0  0  0
    5.4256    0.8361   20.1603 C   0  0  0  0  0  0  0  0  0  0  0  0
    4.7847    0.8941   18.9248 C   0  0  0  0  0  0  0  0  0  0  0  0
    5.5132    0.6277   17.7635 C   0  0  0  0  0  0  0  0  0  0  0  0
    6.8367    0.3253   17.8376 N   0  0  0  0  0  0  0  0  0  0  0  0
    7.4857    0.2814   19.0301 C   0  0  0  0  0  0  0  0  0  0  0  0
   11.5681   -0.7504   22.0278 C   0  0  0  0  0  0  0  0  0  0  0  0
  1  2  1  0
  2  3  2  0
  3  4  1  0
  4  5  2  0
  5  6  1  0
  6  7  1  0
  6 17  2  0
  7  8  1  0
  8  9  2  0
  8 10  1  0
 10 11  1  0
 11 12  2  0
 12 13  1  0
 13 14  2  0
 14 15  1  0
 15 16  2  0
 16 11  1  0
 17  2  1  0
M  END
>  <original SMILES>  (4) 
Cc1cccc(NC(=O)Nc2cccnc2)c1

>  <ref_pdb>  (4) 
Mpro-x0305_TDFS.pdb

>  <ref_mols>  (4) 
x1093,x0107,x0678,x0434,x0874

>  <N_hits>  (4) 
5

>  <Score_1>  (4) 
18.7504

>  <Score_2>  (4) 
0.5357

>  <Score_3>  (4) 
0.0286

>  <FeatStein>  (4) 
0.6224

$$$$
Test_4
     RDKit          3D

 17 18  0  0  0  0  0  0  0  0999 V2000
   13.5339   -1.5975   21.2590 C   0  0  0  0  0  0  0  0  0  0  0  0
   12.8158   -0.6835   22.2070 C   0  0  0  0  0  0  0  0  0  0  0  0
   13.5376    0.0825   23.1347 C   0  0  0  0  0  0  0  0  0  0  0  0
   12.8742    0.9709   23.9858 C   0  0  0  0  0  0  0  0  0  0  0  0
   11.4887    1.1034   23.9143 C   0  0  0  0  0  0  0  0  0  0  0  0
   10.7649    0.3464   22.9905 C   0  0  0  0  0  0  0  0  0  0  0  0
    9.3600    0.5374   22.8717 N   0  0  0  0  0  0  0  0  0  0  0  0
    8.7542    0.5453   21.5804 C   0  0  0  0  0  0  0  0  0  0  0  0
    9.4642    0.3657   20.5551 O   0  0  0  0  0  0  0  0  0  0  0  0
    7.3524    0.7965   21.4550 N   0  0  0  0  0  0  0  0  0  0  0  0
    6.7007    0.8009   20.1844 C   0  0  0  0  0  0  0  0  0  0  0  0
    5.3803    1.2438   20.0820 C   0  0  0  0  0  0  0  0  0  0  0  0
    4.7504    1.2486   18.8395 C   0  0  0  0  0  0  0  0  0  0  0  0
    5.4445    0.7866   17.7192 C   0  0  0  0  0  0  0  0  0  0  0  0
    6.7254    0.3468   17.8385 N   0  0  0  0  0  0  0  0  0  0  0  0
    7.3650    0.3507   19.0369 C   0  0  0  0  0  0  0  0  0  0  0  0
   11.4255   -0.5331   22.1262 C   0  0  0  0  0  0  0  0  0  0  0  0
  1  2  1  0
  2  3  2  0
  3  4  1  0
  4  5  2  0
  5  6  1  0
  6  7  1  0
  6 17  2  0
  7  8  1  0
  8  9  2  0
  8 10  1  0
 10 11  1  0
 11 12  2  0
 12 13  1  0
 13 14  2  0
 14 15  1  0
 15 16  2  0
 16 11  1  0
 17  2  1  0
M  END
>  <original SMILES>  (5) 
Cc1cccc(NC(=O)Nc2cccnc2)c1

>  <ref_pdb>  (5) 
Mpro-x0305_TDFS.pdb

>  <ref_mols>  (5) 
x0107,x0434,x1093,x1249,x0678

>  <N_hits>  (5) 
5

>  <Score_1>  (5) 
17.9749

>  <Score_2>  (5) 
0.5136

>  <Score_3>  (5) 
0.0286

>  <FeatStein>  (5) 
0.5675

$$$$
Test_5
     RDKit          3D

 25 27  0  0  0  0  0  0  0  0999 V2000
   12.6245    7.8577   25.5054 C   0  0  0  0  0  0  0  0  0  0  0  0
   11.9565    6.6465   24.9411 C   0  0  0  0  0  0  0  0  0  0  0  0
   10.6973    6.5972   24.9028 O   0  0  0  0  0  0  0  0  0  0  0  0
   12.7469    5.5175   24.5376 N   0  0  0  0  0  0  0  0  0  0  0  0
   12.2287    4.3842   23.8197 C   0  0  0  0  0  0  0  0  0  0  0  0
   10.8815    4.3785   23.4285 C   0  0  0  0  0  0  0  0  0  0  0  0
   10.3476    3.2788   22.7570 C   0  0  0  0  0  0  0  0  0  0  0  0
   11.1584    2.1772   22.4707 C   0  0  0  0  0  0  0  0  0  0  0  0
   10.6005    1.0277   21.8465 N   0  0  0  0  0  0  0  0  0  0  0  0
    9.3759    1.1396   21.1250 C   0  0  0  0  0  0  0  0  0  0  0  0
    8.8107    2.2609   21.0197 O   0  0  0  0  0  0  0  0  0  0  0  0
    8.7844   -0.0267   20.5473 N   0  0  0  0  0  0  0  0  0  0  0  0
    7.5854    0.0366   19.7725 C   0  0  0  0  0  0  0  0  0  0  0  0
    7.6072    0.6979   18.5407 C   0  0  0  0  0  0  0  0  0  0  0  0
    6.4556    0.7473   17.7599 C   0  0  0  0  0  0  0  0  0  0  0  0
    5.2892    0.1423   18.2264 C   0  0  0  0  0  0  0  0  0  0  0  0
    5.2805   -0.4904   19.4265 N   0  0  0  0  0  0  0  0  0  0  0  0
    6.3848   -0.5578   20.2158 C   0  0  0  0  0  0  0  0  0  0  0  0
    6.2898   -1.2162   21.4894 N   0  0  0  0  0  0  0  0  0  0  0  0
    5.3165   -2.0604   21.8803 C   0  0  0  0  0  0  0  0  0  0  0  0
    5.5104   -2.4447   23.1567 N   0  0  0  0  0  0  0  0  0  0  0  0
    6.6273   -1.7892   23.5305 C   0  0  0  0  0  0  0  0  0  0  0  0
    7.0997   -1.0356   22.5213 N   0  0  0  0  0  0  0  0  0  0  0  0
   12.4935    2.1616   22.8775 C   0  0  0  0  0  0  0  0  0  0  0  0
   13.0276    3.2575   23.5534 C   0  0  0  0  0  0  0  0  0  0  0  0
  1  2  1  0
  2  3  2  0
  2  4  1  0
  4  5  1  0
  5  6  2  0
  6  7  1  0
  7  8  2  0
  8  9  1  0
  8 24  1  0
  9 10  1  0
 10 11  2  0
 10 12  1  0
 12 13  1  0
 13 14  2  0
 14 15  1  0
 15 16  2  0
 16 17  1  0
 17 18  2  0
 18 19  1  0
 18 13  1  0
 19 20  1  0
 20 21  2  0
 21 22  1  0
 22 23  2  0
 23 19  1  0
 24 25  2  0
 25  5  1  0
M  END
>  <original SMILES>  (6) 
CC(=O)Nc1ccc(NC(=O)Nc2cccnc2-n2cncn2)cc1

>  <ref_pdb>  (6) 
Mpro-x0305_TDFS.pdb

>  <ref_mols>  (6) 
x1093,x0874,x0107,x0946

>  <N_hits>  (6) 
4

>  <Score_1>  (6) 
20.9345

>  <Score_2>  (6) 
0.3589

>  <Score_3>  (6) 
0.0171

>  <FeatStein>  (6) 
0.3410

$$$$
Test_6
     RDKit          3D

 17 18  0  0  0  0  0  0  0  0999 V2000
    3.6074    2.1507   19.2345 C   0  0  0  0  0  0  0  0  0  0  0  0
    4.8211    2.1220   20.1080 C   0  0  0  0  0  0  0  0  0  0  0  0
    5.8645    1.2278   19.8370 C   0  0  0  0  0  0  0  0  0  0  0  0
    6.9915    1.2248   20.6562 C   0  0  0  0  0  0  0  0  0  0  0  0
    7.0553    2.0936   21.7473 C   0  0  0  0  0  0  0  0  0  0  0  0
    8.2076    2.0920   22.5909 N   0  0  0  0  0  0  0  0  0  0  0  0
    9.3289    1.2446   22.3303 C   0  0  0  0  0  0  0  0  0  0  0  0
    9.3458    0.5046   21.3106 O   0  0  0  0  0  0  0  0  0  0  0  0
   10.4525    1.2656   23.2087 N   0  0  0  0  0  0  0  0  0  0  0  0
   11.5921    0.4662   22.9148 C   0  0  0  0  0  0  0  0  0  0  0  0
   11.4331   -0.7741   22.2865 C   0  0  0  0  0  0  0  0  0  0  0  0
   12.5565   -1.5283   21.9447 C   0  0  0  0  0  0  0  0  0  0  0  0
   13.8360   -1.0365   22.2185 C   0  0  0  0  0  0  0  0  0  0  0  0
   13.9933    0.2094   22.8332 C   0  0  0  0  0  0  0  0  0  0  0  0
   12.8716    0.9622   23.1808 C   0  0  0  0  0  0  0  0  0  0  0  0
    5.9907    2.9691   21.9907 C   0  0  0  0  0  0  0  0  0  0  0  0
    4.9105    2.9667   21.1698 N   0  0  0  0  0  0  0  0  0  0  0  0
  1  2  1  0
  2  3  2  0
  3  4  1  0
  4  5  2  0
  5  6  1  0
  5 16  1  0
  6  7  1  0
  7  8  2  0
  7  9  1  0
  9 10  1  0
 10 11  2  0
 11 12  1  0
 12 13  2  0
 13 14  1  0
 14 15  2  0
 15 10  1  0
 16 17  2  0
 17  2  1  0
M  END
>  <original SMILES>  (7) 
Cc1ccc(NC(=O)Nc2ccccc2)cn1

>  <ref_pdb>  (7) 
Mpro-x0305_TDFS.pdb

>  <ref_mols>  (7) 
x0967,x0874,x0104

>  <N_hits>  (7) 
3

>  <Score_1>  (7) 
14.6733

>  <Score_2>  (7) 
0.1677

>  <Score_3>  (7) 
0.0114

>  <FeatStein>  (7) 
0.3387

$$$$
Test_7
     RDKit          3D

 17 18  0  0  0  0  0  0  0  0999 V2000
    3.5509    2.1714   19.3396 C   0  0  0  0  0  0  0  0  0  0  0  0
    4.7558    2.1504   20.2253 C   0  0  0  0  0  0  0  0  0  0  0  0
    4.8035    2.9549   21.3710 C   0  0  0  0  0  0  0  0  0  0  0  0
    5.9305    2.9123   22.1891 C   0  0  0  0  0  0  0  0  0  0  0  0
    7.0041    2.0888   21.8444 C   0  0  0  0  0  0  0  0  0  0  0  0
    8.1621    2.0440   22.6789 N   0  0  0  0  0  0  0  0  0  0  0  0
    9.2989    1.2443   22.3448 C   0  0  0  0  0  0  0  0  0  0  0  0
    9.3239    0.5890   21.2689 O   0  0  0  0  0  0  0  0  0  0  0  0
   10.4281    1.2187   23.2159 N   0  0  0  0  0  0  0  0  0  0  0  0
   11.5820    0.4698   22.8525 C   0  0  0  0  0  0  0  0  0  0  0  0
   12.8560    0.9418   23.1877 C   0  0  0  0  0  0  0  0  0  0  0  0
   13.9823    0.1757   22.8839 C   0  0  0  0  0  0  0  0  0  0  0  0
   13.8331   -1.0656   22.2586 C   0  0  0  0  0  0  0  0  0  0  0  0
   12.5584   -1.5420   21.9375 C   0  0  0  0  0  0  0  0  0  0  0  0
   11.4318   -0.7752   22.2352 C   0  0  0  0  0  0  0  0  0  0  0  0
    6.9233    1.3034   20.6887 C   0  0  0  0  0  0  0  0  0  0  0  0
    5.8090    1.3480   19.9160 N   0  0  0  0  0  0  0  0  0  0  0  0
  1  2  1  0
  2  3  2  0
  3  4  1  0
  4  5  2  0
  5  6  1  0
  5 16  1  0
  6  7  1  0
  7  8  2  0
  7  9  1  0
  9 10  1  0
 10 11  2  0
 11 12  1  0
 12 13  2  0
 13 14  1  0
 14 15  2  0
 15 10  1  0
 16 17  2  0
 17  2  1  0
M  END
>  <original SMILES>  (8) 
Cc1ccc(NC(=O)Nc2ccccc2)cn1

>  <ref_pdb>  (8) 
Mpro-x0305_TDFS.pdb

>  <ref_mols>  (8) 
x0967,x0678,x0874,x0104

>  <N_hits>  (8) 
4

>  <Score_1>  (8) 
14.6509

>  <Score_2>  (8) 
0.1674

>  <Score_3>  (8) 
0.0114

>  <FeatStein>  (8) 
0.3492

$$$$
Test_8
     RDKit          3D

 17 18  0  0  0  0  0  0  0  0999 V2000
    3.5173    2.1050   19.1946 C   0  0  0  0  0  0  0  0  0  0  0  0
    4.7306    2.0954   20.0689 C   0  0  0  0  0  0  0  0  0  0  0  0
    5.8823    1.4053   19.6699 C   0  0  0  0  0  0  0  0  0  0  0  0
    7.0060    1.4179   20.4937 C   0  0  0  0  0  0  0  0  0  0  0  0
    6.9614    2.0962   21.7133 C   0  0  0  0  0  0  0  0  0  0  0  0
    8.1100    2.1097   22.5617 N   0  0  0  0  0  0  0  0  0  0  0  0
    9.2573    1.3025   22.2865 C   0  0  0  0  0  0  0  0  0  0  0  0
    9.3002    0.5871   21.2501 O   0  0  0  0  0  0  0  0  0  0  0  0
   10.3765    1.3370   23.1701 N   0  0  0  0  0  0  0  0  0  0  0  0
   11.5408    0.5791   22.8629 C   0  0  0  0  0  0  0  0  0  0  0  0
   12.7955    1.0155   23.3030 C   0  0  0  0  0  0  0  0  0  0  0  0
   13.9277    0.2389   23.0527 C   0  0  0  0  0  0  0  0  0  0  0  0
   13.8028   -0.9778   22.3758 C   0  0  0  0  0  0  0  0  0  0  0  0
   12.5464   -1.4190   21.9495 C   0  0  0  0  0  0  0  0  0  0  0  0
   11.4144   -0.6415   22.1936 C   0  0  0  0  0  0  0  0  0  0  0  0
    5.7910    2.7698   22.0816 C   0  0  0  0  0  0  0  0  0  0  0  0
    4.7144    2.7583   21.2560 N   0  0  0  0  0  0  0  0  0  0  0  0
  1  2  1  0
  2  3  2  0
  3  4  1  0
  4  5  2  0
  5  6  1  0
  5 16  1  0
  6  7  1  0
  7  8  2  0
  7  9  1  0
  9 10  1  0
 10 11  2  0
 11 12  1  0
 12 13  2  0
 13 14  1  0
 14 15  2  0
 15 10  1  0
 16 17  2  0
 17  2  1  0
M  END
>  <original SMILES>  (9) 
Cc1ccc(NC(=O)Nc2ccccc2)cn1

>  <ref_pdb>  (9) 
Mpro-x0305_TDFS.pdb

>  <ref_mols>  (9) 
x0967,x0678,x0874,x0104

>  <N_hits>  (9) 
4

>  <Score_1>  (9) 
14.7369

>  <Score_2>  (9) 
0.1684

>  <Score_3>  (9) 
0.0114

>  <FeatStein>  (9) 
0.3707

$$$$
Test_9
     RDKit          3D

 17 18  0  0  0  0  0  0  0  0999 V2000
    3.5900    2.0686   19.1429 C   0  0  0  0  0  0  0  0  0  0  0  0
    4.7801    2.0315   20.0480 C   0  0  0  0  0  0  0  0  0  0  0  0
    5.8809    1.2246   19.7334 C   0  0  0  0  0  0  0  0  0  0  0  0
    6.9845    1.2129   20.5839 C   0  0  0  0  0  0  0  0  0  0  0  0
    6.9687    1.9847   21.7473 C   0  0  0  0  0  0  0  0  0  0  0  0
    8.0967    1.9737   22.6230 N   0  0  0  0  0  0  0  0  0  0  0  0
    9.2532    1.1792   22.3493 C   0  0  0  0  0  0  0  0  0  0  0  0
    9.3234    0.4981   21.2915 O   0  0  0  0  0  0  0  0  0  0  0  0
   10.3508    1.1879   23.2602 N   0  0  0  0  0  0  0  0  0  0  0  0
   11.5248    0.4438   22.9565 C   0  0  0  0  0  0  0  0  0  0  0  0
   11.4218   -0.7871   22.2988 C   0  0  0  0  0  0  0  0  0  0  0  0
   12.5780   -1.4858   21.9481 C   0  0  0  0  0  0  0  0  0  0  0  0
   13.8341   -0.9474   22.2425 C   0  0  0  0  0  0  0  0  0  0  0  0
   13.9351    0.2893   22.8867 C   0  0  0  0  0  0  0  0  0  0  0  0
   12.7806    0.9864   23.2432 C   0  0  0  0  0  0  0  0  0  0  0  0
    5.8486    2.7743   22.0321 C   0  0  0  0  0  0  0  0  0  0  0  0
    4.7922    2.7834   21.1809 N   0  0  0  0  0  0  0  0  0  0  0  0
  1  2  1  0
  2  3  2  0
  3  4  1  0
  4  5  2  0
  5  6  1  0
  5 16  1  0
  6  7  1  0
  7  8  2  0
  7  9  1  0
  9 10  1  0
 10 11  2  0
 11 12  1  0
 12 13  2  0
 13 14  1  0
 14 15  2  0
 15 10  1  0
 16 17  2  0
 17  2  1  0
M  END
>  <original SMILES>  (10) 
Cc1ccc(NC(=O)Nc2ccccc2)cn1

>  <ref_pdb>  (10) 
Mpro-x0305_TDFS.pdb

>  <ref_mols>  (10) 
x0967,x0434,x0874,x0104

>  <N_hits>  (10) 
4

>  <Score_1>  (10) 
14.9120

>  <Score_2>  (10) 
0.1704

>  <Score_3>  (10) 
0.0114

>  <FeatStein>  (10) 
0.3476

$$$$
Test_10
     RDKit          3D

 17 18  0  0  0  0  0  0  0  0999 V2000
    3.5976    2.1867   19.1786 C   0  0  0  0  0  0  0  0  0  0  0  0
    4.7845    2.1140   20.0856 C   0  0  0  0  0  0  0  0  0  0  0  0
    5.8675    1.2855   19.7655 C   0  0  0  0  0  0  0  0  0  0  0  0
    6.9686    1.2406   20.6181 C   0  0  0  0  0  0  0  0  0  0  0  0
    6.9677    2.0014   21.7889 C   0  0  0  0  0  0  0  0  0  0  0  0
    8.0932    1.9565   22.6667 N   0  0  0  0  0  0  0  0  0  0  0  0
    9.2419    1.1568   22.3759 C   0  0  0  0  0  0  0  0  0  0  0  0
    9.3077    0.5017   21.3016 O   0  0  0  0  0  0  0  0  0  0  0  0
   10.3372    1.1311   23.2893 N   0  0  0  0  0  0  0  0  0  0  0  0
   11.5040    0.3823   22.9699 C   0  0  0  0  0  0  0  0  0  0  0  0
   11.3897   -0.8315   22.2830 C   0  0  0  0  0  0  0  0  0  0  0  0
   12.5393   -1.5334   21.9176 C   0  0  0  0  0  0  0  0  0  0  0  0
   13.8002   -1.0152   22.2267 C   0  0  0  0  0  0  0  0  0  0  0  0
   13.9127    0.2048   22.9004 C   0  0  0  0  0  0  0  0  0  0  0  0
   12.7648    0.9050   23.2715 C   0  0  0  0  0  0  0  0  0  0  0  0
    5.8651    2.8133   22.0790 C   0  0  0  0  0  0  0  0  0  0  0  0
    4.8111    2.8545   21.2257 N   0  0  0  0  0  0  0  0  0  0  0  0
  1  2  1  0
  2  3  2  0
  3  4  1  0
  4  5  2  0
  5  6  1  0
  5 16  1  0
  6  7  1  0
  7  8  2  0
  7  9  1  0
  9 10  1  0
 10 11  2  0
 11 12  1  0
 12 13  2  0
 13 14  1  0
 14 15  2  0
 15 10  1  0
 16 17  2  0
 17  2  1  0
M  END
>  <original SMILES>  (11) 
Cc1ccc(NC(=O)Nc2ccccc2)cn1

>  <ref_pdb>  (11) 
Mpro-x0305_TDFS.pdb

>  <ref_mols>  (11) 
x0967,x0874,x0678,x0104

>  <N_hits>  (11) 
4

>  <Score_1>  (11) 
14.9268

>  <Score_2>  (11) 
0.1706

>  <Score_3>  (11) 
0.0114

>  <FeatStein>  (11) 
0.3493

$$$$
Test_11
     RDKit          3D

 18 19  0  0  0  0  0  0  0  0999 V2000
    3.8895    3.0936   21.5332 C   0  0  0  0  0  0  0  0  0  0  0  0
    5.0399    2.2564   21.4790 O   0  0  0  0  0  0  0  0  0  0  0  0
    5.5122    1.6304   20.3143 C   0  0  0  0  0  0  0  0  0  0  0  0
    4.7728    1.6120   19.1221 C   0  0  0  0  0  0  0  0  0  0  0  0
    5.2920    0.9645   17.9999 C   0  0  0  0  0  0  0  0  0  0  0  0
    6.5083    0.3629   18.0541 N   0  0  0  0  0  0  0  0  0  0  0  0
    7.2530    0.3781   19.1886 C   0  0  0  0  0  0  0  0  0  0  0  0
    6.7679    1.0108   20.3396 C   0  0  0  0  0  0  0  0  0  0  0  0
    7.5399    1.0128   21.5422 N   0  0  0  0  0  0  0  0  0  0  0  0
    8.9005    0.5749   21.5640 C   0  0  0  0  0  0  0  0  0  0  0  0
    9.4684    0.2040   20.5022 O   0  0  0  0  0  0  0  0  0  0  0  0
    9.6304    0.5915   22.7894 N   0  0  0  0  0  0  0  0  0  0  0  0
   10.9995    0.2050   22.7996 C   0  0  0  0  0  0  0  0  0  0  0  0
   11.4298   -0.8656   22.0077 C   0  0  0  0  0  0  0  0  0  0  0  0
   12.7834   -1.2036   21.9731 C   0  0  0  0  0  0  0  0  0  0  0  0
   13.7059   -0.4636   22.7184 C   0  0  0  0  0  0  0  0  0  0  0  0
   13.2760    0.6148   23.4978 C   0  0  0  0  0  0  0  0  0  0  0  0
   11.9228    0.9504   23.5381 C   0  0  0  0  0  0  0  0  0  0  0  0
  1  2  1  0
  2  3  1  0
  3  4  2  0
  4  5  1  0
  5  6  2  0
  6  7  1  0
  7  8  2  0
  8  9  1  0
  8  3  1  0
  9 10  1  0
 10 11  2  0
 10 12  1  0
 12 13  1  0
 13 14  2  0
 14 15  1  0
 15 16  2  0
 16 17  1  0
 17 18  2  0
 18 13  1  0
M  END
>  <original SMILES>  (12) 
COc1ccncc1NC(=O)Nc1ccccc1

>  <ref_pdb>  (12) 
Mpro-x0305_TDFS.pdb

>  <ref_mols>  (12) 
x0874,x1093,x0434,x0426

>  <N_hits>  (12) 
4

>  <Score_1>  (12) 
18.9772

>  <Score_2>  (12) 
0.3253

>  <Score_3>  (12) 
0.0171

>  <FeatStein>  (12) 
0.5041

$$$$
Test_12
     RDKit          3D

 18 19  0  0  0  0  0  0  0  0999 V2000
    3.8988    3.1034   21.4687 C   0  0  0  0  0  0  0  0  0  0  0  0
    5.0716    2.2975   21.4227 O   0  0  0  0  0  0  0  0  0  0  0  0
    5.5349    1.6344   20.2752 C   0  0  0  0  0  0  0  0  0  0  0  0
    4.8024    1.6084   19.0788 C   0  0  0  0  0  0  0  0  0  0  0  0
    5.3117    0.9235   17.9744 C   0  0  0  0  0  0  0  0  0  0  0  0
    6.5120    0.2928   18.0497 N   0  0  0  0  0  0  0  0  0  0  0  0
    7.2500    0.3140   19.1885 C   0  0  0  0  0  0  0  0  0  0  0  0
    6.7743    0.9839   20.3222 C   0  0  0  0  0  0  0  0  0  0  0  0
    7.5388    0.9928   21.5295 N   0  0  0  0  0  0  0  0  0  0  0  0
    8.8986    0.5532   21.5626 C   0  0  0  0  0  0  0  0  0  0  0  0
    9.4726    0.1746   20.5068 O   0  0  0  0  0  0  0  0  0  0  0  0
    9.6210    0.5769   22.7923 N   0  0  0  0  0  0  0  0  0  0  0  0
   10.9895    0.1887   22.8135 C   0  0  0  0  0  0  0  0  0  0  0  0
   11.4389   -0.8351   21.9720 C   0  0  0  0  0  0  0  0  0  0  0  0
   12.7930   -1.1724   21.9509 C   0  0  0  0  0  0  0  0  0  0  0  0
   13.6970   -0.4778   22.7599 C   0  0  0  0  0  0  0  0  0  0  0  0
   13.2482    0.5545   23.5894 C   0  0  0  0  0  0  0  0  0  0  0  0
   11.8944    0.8891   23.6161 C   0  0  0  0  0  0  0  0  0  0  0  0
  1  2  1  0
  2  3  1  0
  3  4  2  0
  4  5  1  0
  5  6  2  0
  6  7  1  0
  7  8  2  0
  8  9  1  0
  8  3  1  0
  9 10  1  0
 10 11  2  0
 10 12  1  0
 12 13  1  0
 13 14  2  0
 14 15  1  0
 15 16  2  0
 16 17  1  0
 17 18  2  0
 18 13  1  0
M  END
>  <original SMILES>  (13) 
COc1ccncc1NC(=O)Nc1ccccc1

>  <ref_pdb>  (13) 
Mpro-x0305_TDFS.pdb

>  <ref_mols>  (13) 
x0874,x1093,x0434,x0107

>  <N_hits>  (13) 
4

>  <Score_1>  (13) 
19.0079

>  <Score_2>  (13) 
0.4345

>  <Score_3>  (13) 
0.0229

>  <FeatStein>  (13) 
0.5095

$$$$
Test_13
     RDKit          3D

 18 19  0  0  0  0  0  0  0  0999 V2000
    3.6538    3.0672   21.2393 C   0  0  0  0  0  0  0  0  0  0  0  0
    4.9060    2.3904   21.2024 O   0  0  0  0  0  0  0  0  0  0  0  0
    5.4189    1.7306   20.0742 C   0  0  0  0  0  0  0  0  0  0  0  0
    4.7075    1.6479   18.8676 C   0  0  0  0  0  0  0  0  0  0  0  0
    5.2669    0.9694   17.7838 C   0  0  0  0  0  0  0  0  0  0  0  0
    6.4950    0.3993   17.8885 N   0  0  0  0  0  0  0  0  0  0  0  0
    7.2130    0.4765   19.0376 C   0  0  0  0  0  0  0  0  0  0  0  0
    6.6875    1.1423   20.1516 C   0  0  0  0  0  0  0  0  0  0  0  0
    7.4315    1.2096   21.3698 N   0  0  0  0  0  0  0  0  0  0  0  0
    8.7930    0.7807   21.4450 C   0  0  0  0  0  0  0  0  0  0  0  0
    9.3869    0.3594   20.4167 O   0  0  0  0  0  0  0  0  0  0  0  0
    9.4945    0.8636   22.6842 N   0  0  0  0  0  0  0  0  0  0  0  0
   10.8646    0.4856   22.7454 C   0  0  0  0  0  0  0  0  0  0  0  0
   11.7359    1.1530   23.6136 C   0  0  0  0  0  0  0  0  0  0  0  0
   13.0652    0.7402   23.7161 C   0  0  0  0  0  0  0  0  0  0  0  0
   13.5178   -0.3462   22.9617 C   0  0  0  0  0  0  0  0  0  0  0  0
   12.6420   -1.0207   22.1054 C   0  0  0  0  0  0  0  0  0  0  0  0
   11.3147   -0.6059   21.9974 C   0  0  0  0  0  0  0  0  0  0  0  0
  1  2  1  0
  2  3  1  0
  3  4  2  0
  4  5  1  0
  5  6  2  0
  6  7  1  0
  7  8  2  0
  8  9  1  0
  8  3  1  0
  9 10  1  0
 10 11  2  0
 10 12  1  0
 12 13  1  0
 13 14  2  0
 14 15  1  0
 15 16  2  0
 16 17  1  0
 17 18  2  0
 18 13  1  0
M  END
>  <original SMILES>  (14) 
COc1ccncc1NC(=O)Nc1ccccc1

>  <ref_pdb>  (14) 
Mpro-x0305_TDFS.pdb

>  <ref_mols>  (14) 
x0874,x0434,x0426,x1093

>  <N_hits>  (14) 
4

>  <Score_1>  (14) 
18.0638

>  <Score_2>  (14) 
0.4129

>  <Score_3>  (14) 
0.0229

>  <FeatStein>  (14) 
0.5038

$$$$
Test_14
     RDKit          3D

 18 19  0  0  0  0  0  0  0  0999 V2000
    3.6919    3.0996   21.3132 C   0  0  0  0  0  0  0  0  0  0  0  0
    4.8294    2.2435   21.2903 O   0  0  0  0  0  0  0  0  0  0  0  0
    5.3559    1.6535   20.1302 C   0  0  0  0  0  0  0  0  0  0  0  0
    4.6326    1.5875   18.9298 C   0  0  0  0  0  0  0  0  0  0  0  0
    5.2068    0.9791   17.8126 C   0  0  0  0  0  0  0  0  0  0  0  0
    6.4605    0.4612   17.8795 N   0  0  0  0  0  0  0  0  0  0  0  0
    7.1899    0.5244   19.0222 C   0  0  0  0  0  0  0  0  0  0  0  0
    6.6504    1.1204   20.1686 C   0  0  0  0  0  0  0  0  0  0  0  0
    7.4071    1.1721   21.3797 N   0  0  0  0  0  0  0  0  0  0  0  0
    8.7695    0.7429   21.4350 C   0  0  0  0  0  0  0  0  0  0  0  0
    9.3526    0.3352   20.3951 O   0  0  0  0  0  0  0  0  0  0  0  0
    9.4839    0.8099   22.6678 N   0  0  0  0  0  0  0  0  0  0  0  0
   10.8547    0.4316   22.7096 C   0  0  0  0  0  0  0  0  0  0  0  0
   11.7442    1.1178   23.5441 C   0  0  0  0  0  0  0  0  0  0  0  0
   13.0749    0.7058   23.6289 C   0  0  0  0  0  0  0  0  0  0  0  0
   13.5110   -0.3983   22.8907 C   0  0  0  0  0  0  0  0  0  0  0  0
   12.6173   -1.0914   22.0685 C   0  0  0  0  0  0  0  0  0  0  0  0
   11.2885   -0.6776   21.9781 C   0  0  0  0  0  0  0  0  0  0  0  0
  1  2  1  0
  2  3  1  0
  3  4  2  0
  4  5  1  0
  5  6  2  0
  6  7  1  0
  7  8  2  0
  8  9  1  0
  8  3  1  0
  9 10  1  0
 10 11  2  0
 10 12  1  0
 12 13  1  0
 13 14  2  0
 14 15  1  0
 15 16  2  0
 16 17  1  0
 17 18  2  0
 18 13  1  0
M  END
>  <original SMILES>  (15) 
COc1ccncc1NC(=O)Nc1ccccc1

>  <ref_pdb>  (15) 
Mpro-x0305_TDFS.pdb

>  <ref_mols>  (15) 
x0874,x0434,x0426,x1093

>  <N_hits>  (15) 
4

>  <Score_1>  (15) 
18.4743

>  <Score_2>  (15) 
0.4223

>  <Score_3>  (15) 
0.0229

>  <FeatStein>  (15) 
0.5140

$$$$
Test_15
     RDKit          3D

 18 19  0  0  0  0  0  0  0  0999 V2000
    3.6834    3.0722   21.3519 C   0  0  0  0  0  0  0  0  0  0  0  0
    4.8438    2.2476   21.3230 O   0  0  0  0  0  0  0  0  0  0  0  0
    5.3682    1.6552   20.1631 C   0  0  0  0  0  0  0  0  0  0  0  0
    4.6502    1.6035   18.9589 C   0  0  0  0  0  0  0  0  0  0  0  0
    5.2219    0.9919   17.8421 C   0  0  0  0  0  0  0  0  0  0  0  0
    6.4682    0.4572   17.9132 N   0  0  0  0  0  0  0  0  0  0  0  0
    7.1926    0.5061   19.0598 C   0  0  0  0  0  0  0  0  0  0  0  0
    6.6553    1.1048   20.2059 C   0  0  0  0  0  0  0  0  0  0  0  0
    7.4066    1.1416   21.4209 N   0  0  0  0  0  0  0  0  0  0  0  0
    8.7773    0.7392   21.4709 C   0  0  0  0  0  0  0  0  0  0  0  0
    9.3723    0.3697   20.4235 O   0  0  0  0  0  0  0  0  0  0  0  0
    9.4859    0.7899   22.7079 N   0  0  0  0  0  0  0  0  0  0  0  0
   10.8640    0.4390   22.7457 C   0  0  0  0  0  0  0  0  0  0  0  0
   11.7469    1.1594   23.5581 C   0  0  0  0  0  0  0  0  0  0  0  0
   13.0860    0.7748   23.6400 C   0  0  0  0  0  0  0  0  0  0  0  0
   13.5373   -0.3360   22.9212 C   0  0  0  0  0  0  0  0  0  0  0  0
   12.6504   -1.0631   22.1212 C   0  0  0  0  0  0  0  0  0  0  0  0
   11.3131   -0.6768   22.0337 C   0  0  0  0  0  0  0  0  0  0  0  0
  1  2  1  0
  2  3  1  0
  3  4  2  0
  4  5  1  0
  5  6  2  0
  6  7  1  0
  7  8  2  0
  8  9  1  0
  8  3  1  0
  9 10  1  0
 10 11  2  0
 10 12  1  0
 12 13  1  0
 13 14  2  0
 14 15  1  0
 15 16  2  0
 16 17  1  0
 17 18  2  0
 18 13  1  0
M  END
>  <original SMILES>  (16) 
COc1ccncc1NC(=O)Nc1ccccc1

>  <ref_pdb>  (16) 
Mpro-x0305_TDFS.pdb

>  <ref_mols>  (16) 
x0874,x0434,x0426,x1093

>  <N_hits>  (16) 
4

>  <Score_1>  (16) 
18.4551

>  <Score_2>  (16) 
0.4218

>  <Score_3>  (16) 
0.0229

>  <FeatStein>  (16) 
0.5126

$$$$
Test_16
     RDKit          3D

 17 18  0  0  0  0  0  0  0  0999 V2000
    9.5055    0.2091   20.5397 O   0  0  0  0  0  0  0  0  0  0  0  0
    8.8174    0.3337   21.5878 C   0  0  0  0  0  0  0  0  0  0  0  0
    7.4119    0.5817   21.5057 N   0  0  0  0  0  0  0  0  0  0  0  0
    6.7321    0.6435   20.2513 C   0  0  0  0  0  0  0  0  0  0  0  0
    5.4519    1.1969   20.1810 C   0  0  0  0  0  0  0  0  0  0  0  0
    4.7945    1.2571   18.9543 C   0  0  0  0  0  0  0  0  0  0  0  0
    5.4195    0.7398   17.8175 C   0  0  0  0  0  0  0  0  0  0  0  0
    6.6610    0.1928   17.9057 N   0  0  0  0  0  0  0  0  0  0  0  0
    7.3278    0.1404   19.0881 C   0  0  0  0  0  0  0  0  0  0  0  0
    9.4517    0.2659   22.8637 N   0  0  0  0  0  0  0  0  0  0  0  0
   10.8600    0.0790   22.9417 C   0  0  0  0  0  0  0  0  0  0  0  0
   11.5866    0.7153   23.9516 C   0  0  0  0  0  0  0  0  0  0  0  0
   12.9748    0.5886   23.9923 C   0  0  0  0  0  0  0  0  0  0  0  0
   13.6366   -0.1715   23.0236 C   0  0  0  0  0  0  0  0  0  0  0  0
   12.9107   -0.8017   22.0071 C   0  0  0  0  0  0  0  0  0  0  0  0
   13.7447   -1.7452   20.7861 Cl  0  0  0  0  0  0  0  0  0  0  0  0
   11.5208   -0.6706   21.9623 C   0  0  0  0  0  0  0  0  0  0  0  0
  1  2  2  0
  2  3  1  0
  2 10  1  0
  3  4  1  0
  4  5  2  0
  5  6  1  0
  6  7  2  0
  7  8  1  0
  8  9  2  0
  9  4  1  0
 10 11  1  0
 11 12  2  0
 12 13  1  0
 13 14  2  0
 14 15  1  0
 15 16  1  0
 15 17  2  0
 17 11  1  0
M  END
>  <original SMILES>  (17) 
O=C(Nc1cccnc1)Nc1cccc(Cl)c1

>  <ref_pdb>  (17) 
Mpro-x0305_TDFS.pdb

>  <ref_mols>  (17) 
x0107,x1093,x0434,x0874,x0678

>  <N_hits>  (17) 
5

>  <Score_1>  (17) 
18.4407

>  <Score_2>  (17) 
0.5269

>  <Score_3>  (17) 
0.0286

>  <FeatStein>  (17) 
0.6091

$$$$
Test_17
     RDKit          3D

 17 18  0  0  0  0  0  0  0  0999 V2000
    9.4763    0.2722   20.5613 O   0  0  0  0  0  0  0  0  0  0  0  0
    8.7883    0.4337   21.6045 C   0  0  0  0  0  0  0  0  0  0  0  0
    7.3881    0.7074   21.5128 N   0  0  0  0  0  0  0  0  0  0  0  0
    6.7128    0.7546   20.2554 C   0  0  0  0  0  0  0  0  0  0  0  0
    5.4063    1.2427   20.1860 C   0  0  0  0  0  0  0  0  0  0  0  0
    4.7532    1.2890   18.9564 C   0  0  0  0  0  0  0  0  0  0  0  0
    5.4100    0.8229   17.8154 C   0  0  0  0  0  0  0  0  0  0  0  0
    6.6775    0.3389   17.9025 N   0  0  0  0  0  0  0  0  0  0  0  0
    7.3397    0.3016   19.0880 C   0  0  0  0  0  0  0  0  0  0  0  0
    9.4180    0.3818   22.8834 N   0  0  0  0  0  0  0  0  0  0  0  0
   10.8221    0.1690   22.9696 C   0  0  0  0  0  0  0  0  0  0  0  0
   11.5528    0.7837   23.9898 C   0  0  0  0  0  0  0  0  0  0  0  0
   12.9382    0.6318   24.0391 C   0  0  0  0  0  0  0  0  0  0  0  0
   13.5932   -0.1321   23.0686 C   0  0  0  0  0  0  0  0  0  0  0  0
   12.8633   -0.7406   22.0419 C   0  0  0  0  0  0  0  0  0  0  0  0
   13.6889   -1.6887   20.8187 Cl  0  0  0  0  0  0  0  0  0  0  0  0
   11.4764   -0.5842   21.9884 C   0  0  0  0  0  0  0  0  0  0  0  0
  1  2  2  0
  2  3  1  0
  2 10  1  0
  3  4  1  0
  4  5  2  0
  5  6  1  0
  6  7  2  0
  7  8  1  0
  8  9  2  0
  9  4  1  0
 10 11  1  0
 11 12  2  0
 12 13  1  0
 13 14  2  0
 14 15  1  0
 15 16  1  0
 15 17  2  0
 17 11  1  0
M  END
>  <original SMILES>  (18) 
O=C(Nc1cccnc1)Nc1cccc(Cl)c1

>  <ref_pdb>  (18) 
Mpro-x0305_TDFS.pdb

>  <ref_mols>  (18) 
x0107,x1093,x0434,x1249,x0678

>  <N_hits>  (18) 
5

>  <Score_1>  (18) 
18.1736

>  <Score_2>  (18) 
0.5192

>  <Score_3>  (18) 
0.0286

>  <FeatStein>  (18) 
0.5997

$$$$
Test_18
     RDKit          3D

 17 18  0  0  0  0  0  0  0  0999 V2000
    9.4393    0.2950   20.5504 O   0  0  0  0  0  0  0  0  0  0  0  0
    8.7468    0.4561   21.5907 C   0  0  0  0  0  0  0  0  0  0  0  0
    7.3468    0.7282   21.4933 N   0  0  0  0  0  0  0  0  0  0  0  0
    6.6764    0.7741   20.2332 C   0  0  0  0  0  0  0  0  0  0  0  0
    5.3865    1.3027   20.1509 C   0  0  0  0  0  0  0  0  0  0  0  0
    4.7383    1.3476   18.9187 C   0  0  0  0  0  0  0  0  0  0  0  0
    5.3825    0.8399   17.7884 C   0  0  0  0  0  0  0  0  0  0  0  0
    6.6335    0.3169   17.8881 N   0  0  0  0  0  0  0  0  0  0  0  0
    7.2912    0.2800   19.0761 C   0  0  0  0  0  0  0  0  0  0  0  0
    9.3715    0.4054   22.8721 N   0  0  0  0  0  0  0  0  0  0  0  0
   10.7755    0.1942   22.9640 C   0  0  0  0  0  0  0  0  0  0  0  0
   11.5046    0.8263   23.9748 C   0  0  0  0  0  0  0  0  0  0  0  0
   12.8899    0.6754   24.0287 C   0  0  0  0  0  0  0  0  0  0  0  0
   13.5464   -0.1048   23.0723 C   0  0  0  0  0  0  0  0  0  0  0  0
   12.8181   -0.7307   22.0549 C   0  0  0  0  0  0  0  0  0  0  0  0
   13.6457   -1.6993   20.8493 Cl  0  0  0  0  0  0  0  0  0  0  0  0
   11.4313   -0.5754   21.9968 C   0  0  0  0  0  0  0  0  0  0  0  0
  1  2  2  0
  2  3  1  0
  2 10  1  0
  3  4  1  0
  4  5  2  0
  5  6  1  0
  6  7  2  0
  7  8  1  0
  8  9  2  0
  9  4  1  0
 10 11  1  0
 11 12  2  0
 12 13  1  0
 13 14  2  0
 14 15  1  0
 15 16  1  0
 15 17  2  0
 17 11  1  0
M  END
>  <original SMILES>  (19) 
O=C(Nc1cccnc1)Nc1cccc(Cl)c1

>  <ref_pdb>  (19) 
Mpro-x0305_TDFS.pdb

>  <ref_mols>  (19) 
x0107,x0434,x1093,x1249,x0678

>  <N_hits>  (19) 
5

>  <Score_1>  (19) 
18.1694

>  <Score_2>  (19) 
0.5191

>  <Score_3>  (19) 
0.0286

>  <FeatStein>  (19) 
0.6021

$$$$
Test_19
     RDKit          3D

 17 18  0  0  0  0  0  0  0  0999 V2000
    9.4631    0.1087   20.5454 O   0  0  0  0  0  0  0  0  0  0  0  0
    8.7736    0.2216   21.5940 C   0  0  0  0  0  0  0  0  0  0  0  0
    7.3648    0.4501   21.5127 N   0  0  0  0  0  0  0  0  0  0  0  0
    6.6838    0.5048   20.2586 C   0  0  0  0  0  0  0  0  0  0  0  0
    5.3488    0.9113   20.2097 C   0  0  0  0  0  0  0  0  0  0  0  0
    4.6903    0.9655   18.9833 C   0  0  0  0  0  0  0  0  0  0  0  0
    5.3717    0.5883   17.8241 C   0  0  0  0  0  0  0  0  0  0  0  0
    6.6676    0.1827   17.8909 N   0  0  0  0  0  0  0  0  0  0  0  0
    7.3346    0.1399   19.0735 C   0  0  0  0  0  0  0  0  0  0  0  0
    9.4092    0.1602   22.8696 N   0  0  0  0  0  0  0  0  0  0  0  0
   10.8200   -0.0071   22.9469 C   0  0  0  0  0  0  0  0  0  0  0  0
   11.5336    0.6100   23.9778 C   0  0  0  0  0  0  0  0  0  0  0  0
   12.9234    0.5036   24.0195 C   0  0  0  0  0  0  0  0  0  0  0  0
   13.5999   -0.2170   23.0309 C   0  0  0  0  0  0  0  0  0  0  0  0
   12.8869   -0.8278   21.9936 C   0  0  0  0  0  0  0  0  0  0  0  0
   13.7392   -1.7214   20.7480 Cl  0  0  0  0  0  0  0  0  0  0  0  0
   11.4953   -0.7169   21.9479 C   0  0  0  0  0  0  0  0  0  0  0  0
  1  2  2  0
  2  3  1  0
  2 10  1  0
  3  4  1  0
  4  5  2  0
  5  6  1  0
  6  7  2  0
  7  8  1  0
  8  9  2  0
  9  4  1  0
 10 11  1  0
 11 12  2  0
 12 13  1  0
 13 14  2  0
 14 15  1  0
 15 16  1  0
 15 17  2  0
 17 11  1  0
M  END
>  <original SMILES>  (20) 
O=C(Nc1cccnc1)Nc1cccc(Cl)c1

>  <ref_pdb>  (20) 
Mpro-x0305_TDFS.pdb

>  <ref_mols>  (20) 
x0107,x1093,x0434,x0678,x0874

>  <N_hits>  (20) 
5

>  <Score_1>  (20) 
18.8258

>  <Score_2>  (20) 
0.5379

>  <Score_3>  (20) 
0.0286

>  <FeatStein>  (20) 
0.6392

$$$$
Test_20
     RDKit          3D

 17 18  0  0  0  0  0  0  0  0999 V2000
    9.4818    0.2251   20.5631 O   0  0  0  0  0  0  0  0  0  0  0  0
    8.8050    0.4200   21.6079 C   0  0  0  0  0  0  0  0  0  0  0  0
    7.4076    0.7091   21.5216 N   0  0  0  0  0  0  0  0  0  0  0  0
    6.7219    0.7349   20.2691 C   0  0  0  0  0  0  0  0  0  0  0  0
    5.4428    1.2894   20.1882 C   0  0  0  0  0  0  0  0  0  0  0  0
    4.7796    1.3144   18.9634 C   0  0  0  0  0  0  0  0  0  0  0  0
    5.3977    0.7615   17.8398 C   0  0  0  0  0  0  0  0  0  0  0  0
    6.6383    0.2140   17.9385 N   0  0  0  0  0  0  0  0  0  0  0  0
    7.3106    0.1955   19.1187 C   0  0  0  0  0  0  0  0  0  0  0  0
    9.4452    0.3906   22.8823 N   0  0  0  0  0  0  0  0  0  0  0  0
   10.8472    0.1622   22.9617 C   0  0  0  0  0  0  0  0  0  0  0  0
   11.5933    0.7861   23.9652 C   0  0  0  0  0  0  0  0  0  0  0  0
   12.9771    0.6181   24.0067 C   0  0  0  0  0  0  0  0  0  0  0  0
   13.6151   -0.1709   23.0451 C   0  0  0  0  0  0  0  0  0  0  0  0
   12.8700   -0.7888   22.0350 C   0  0  0  0  0  0  0  0  0  0  0  0
   13.6745   -1.7686   20.8229 Cl  0  0  0  0  0  0  0  0  0  0  0  0
   11.4847   -0.6163   21.9893 C   0  0  0  0  0  0  0  0  0  0  0  0
  1  2  2  0
  2  3  1  0
  2 10  1  0
  3  4  1  0
  4  5  2  0
  5  6  1  0
  6  7  2  0
  7  8  1  0
  8  9  2  0
  9  4  1  0
 10 11  1  0
 11 12  2  0
 12 13  1  0
 13 14  2  0
 14 15  1  0
 15 16  1  0
 15 17  2  0
 17 11  1  0
M  END
>  <original SMILES>  (21) 
O=C(Nc1cccnc1)Nc1cccc(Cl)c1

>  <ref_pdb>  (21) 
Mpro-x0305_TDFS.pdb

>  <ref_mols>  (21) 
x0107,x1093,x0434,x1249,x0678

>  <N_hits>  (21) 
5

>  <Score_1>  (21) 
18.0995

>  <Score_2>  (21) 
0.5171

>  <Score_3>  (21) 
0.0286

>  <FeatStein>  (21) 
0.5923

$$$$
Test_21
     RDKit          3D

 17 18  0  0  0  0  0  0  0  0999 V2000
    5.2355    2.2981   20.8387 C   0  0  0  0  0  0  0  0  0  0  0  0
    5.6062    1.1691   19.9221 C   0  0  0  0  0  0  0  0  0  0  0  0
    4.8492    0.9585   18.8147 N   0  0  0  0  0  0  0  0  0  0  0  0
    5.1385   -0.0200   17.9207 C   0  0  0  0  0  0  0  0  0  0  0  0
    6.2419   -0.8494   18.1192 C   0  0  0  0  0  0  0  0  0  0  0  0
    7.0394   -0.6644   19.2459 C   0  0  0  0  0  0  0  0  0  0  0  0
    6.7181    0.3366   20.1682 C   0  0  0  0  0  0  0  0  0  0  0  0
    7.5422    0.5128   21.3229 N   0  0  0  0  0  0  0  0  0  0  0  0
    8.9134    0.1084   21.3379 C   0  0  0  0  0  0  0  0  0  0  0  0
    9.4490   -0.3692   20.3022 O   0  0  0  0  0  0  0  0  0  0  0  0
    9.6881    0.2725   22.5234 N   0  0  0  0  0  0  0  0  0  0  0  0
   11.0639   -0.0891   22.5195 C   0  0  0  0  0  0  0  0  0  0  0  0
   11.4926   -1.1999   21.7843 C   0  0  0  0  0  0  0  0  0  0  0  0
   12.8512   -1.5154   21.7320 C   0  0  0  0  0  0  0  0  0  0  0  0
   13.7793   -0.7132   22.4024 C   0  0  0  0  0  0  0  0  0  0  0  0
   13.3503    0.4053   23.1235 C   0  0  0  0  0  0  0  0  0  0  0  0
   11.9926    0.7191   23.1813 C   0  0  0  0  0  0  0  0  0  0  0  0
  1  2  1  0
  2  3  2  0
  3  4  1  0
  4  5  2  0
  5  6  1  0
  6  7  2  0
  7  8  1  0
  7  2  1  0
  8  9  1  0
  9 10  2  0
  9 11  1  0
 11 12  1  0
 12 13  2  0
 13 14  1  0
 14 15  2  0
 15 16  1  0
 16 17  2  0
 17 12  1  0
M  END
>  <original SMILES>  (22) 
Cc1ncccc1NC(=O)Nc1ccccc1

>  <ref_pdb>  (22) 
Mpro-x0305_TDFS.pdb

>  <ref_mols>  (22) 
x1093,x0874,x0678,x0434

>  <N_hits>  (22) 
4

>  <Score_1>  (22) 
19.0489

>  <Score_2>  (22) 
0.2177

>  <Score_3>  (22) 
0.0114

>  <FeatStein>  (22) 
0.5240

$$$$
Test_22
     RDKit          3D

 17 18  0  0  0  0  0  0  0  0999 V2000
    5.6073   -2.1045   21.0976 C   0  0  0  0  0  0  0  0  0  0  0  0
    5.9257   -1.1673   19.9633 C   0  0  0  0  0  0  0  0  0  0  0  0
    5.2633   -1.3091   18.7817 N   0  0  0  0  0  0  0  0  0  0  0  0
    5.4822   -0.4712   17.7351 C   0  0  0  0  0  0  0  0  0  0  0  0
    6.4095    0.5644   17.8416 C   0  0  0  0  0  0  0  0  0  0  0  0
    7.1112    0.7310   19.0319 C   0  0  0  0  0  0  0  0  0  0  0  0
    6.8882   -0.1441   20.0970 C   0  0  0  0  0  0  0  0  0  0  0  0
    7.6353    0.0306   21.3019 N   0  0  0  0  0  0  0  0  0  0  0  0
    9.0447   -0.1849   21.3651 C   0  0  0  0  0  0  0  0  0  0  0  0
    9.6942   -0.4636   20.3224 O   0  0  0  0  0  0  0  0  0  0  0  0
    9.7254   -0.0462   22.6087 N   0  0  0  0  0  0  0  0  0  0  0  0
   11.1389   -0.2039   22.6554 C   0  0  0  0  0  0  0  0  0  0  0  0
   11.7614   -1.1656   21.8517 C   0  0  0  0  0  0  0  0  0  0  0  0
   13.1528   -1.2743   21.8498 C   0  0  0  0  0  0  0  0  0  0  0  0
   13.9204   -0.4129   22.6391 C   0  0  0  0  0  0  0  0  0  0  0  0
   13.2979    0.5585   23.4290 C   0  0  0  0  0  0  0  0  0  0  0  0
   11.9069    0.6650   23.4363 C   0  0  0  0  0  0  0  0  0  0  0  0
  1  2  1  0
  2  3  2  0
  3  4  1  0
  4  5  2  0
  5  6  1  0
  6  7  2  0
  7  8  1  0
  7  2  1  0
  8  9  1  0
  9 10  2  0
  9 11  1  0
 11 12  1  0
 12 13  2  0
 13 14  1  0
 14 15  2  0
 15 16  1  0
 16 17  2  0
 17 12  1  0
M  END
>  <original SMILES>  (23) 
Cc1ncccc1NC(=O)Nc1ccccc1

>  <ref_pdb>  (23) 
Mpro-x0305_TDFS.pdb

>  <ref_mols>  (23) 
x1093,x0678,x0874

>  <N_hits>  (23) 
3

>  <Score_1>  (23) 
18.2517

>  <Score_2>  (23) 
0.2086

>  <Score_3>  (23) 
0.0114

>  <FeatStein>  (23) 
0.5013

$$$$
Test_23
     RDKit          3D

 17 18  0  0  0  0  0  0  0  0999 V2000
    5.2654    2.3309   20.8571 C   0  0  0  0  0  0  0  0  0  0  0  0
    5.6336    1.2077   19.9324 C   0  0  0  0  0  0  0  0  0  0  0  0
    4.8791    1.0099   18.8211 N   0  0  0  0  0  0  0  0  0  0  0  0
    5.1664    0.0373   17.9199 C   0  0  0  0  0  0  0  0  0  0  0  0
    6.2652   -0.7990   18.1151 C   0  0  0  0  0  0  0  0  0  0  0  0
    7.0600   -0.6272   19.2457 C   0  0  0  0  0  0  0  0  0  0  0  0
    6.7406    0.3678   20.1752 C   0  0  0  0  0  0  0  0  0  0  0  0
    7.5619    0.5305   21.3339 N   0  0  0  0  0  0  0  0  0  0  0  0
    8.9304    0.1172   21.3506 C   0  0  0  0  0  0  0  0  0  0  0  0
    9.4665   -0.3564   20.3133 O   0  0  0  0  0  0  0  0  0  0  0  0
    9.7021    0.2679   22.5399 N   0  0  0  0  0  0  0  0  0  0  0  0
   11.0755   -0.1024   22.5380 C   0  0  0  0  0  0  0  0  0  0  0  0
   11.5095   -1.1741   21.7497 C   0  0  0  0  0  0  0  0  0  0  0  0
   12.8668   -1.4957   21.7019 C   0  0  0  0  0  0  0  0  0  0  0  0
   13.7887   -0.7380   22.4301 C   0  0  0  0  0  0  0  0  0  0  0  0
   13.3548    0.3422   23.2046 C   0  0  0  0  0  0  0  0  0  0  0  0
   11.9982    0.6618   23.2579 C   0  0  0  0  0  0  0  0  0  0  0  0
  1  2  1  0
  2  3  2  0
  3  4  1  0
  4  5  2  0
  5  6  1  0
  6  7  2  0
  7  8  1  0
  7  2  1  0
  8  9  1  0
  9 10  2  0
  9 11  1  0
 11 12  1  0
 12 13  2  0
 13 14  1  0
 14 15  2  0
 15 16  1  0
 16 17  2  0
 17 12  1  0
M  END
>  <original SMILES>  (24) 
Cc1ncccc1NC(=O)Nc1ccccc1

>  <ref_pdb>  (24) 
Mpro-x0305_TDFS.pdb

>  <ref_mols>  (24) 
x1093,x0874,x0678,x0434

>  <N_hits>  (24) 
4

>  <Score_1>  (24) 
19.1256

>  <Score_2>  (24) 
0.2186

>  <Score_3>  (24) 
0.0114

>  <FeatStein>  (24) 
0.5329

$$$$
Test_24
     RDKit          3D

 17 18  0  0  0  0  0  0  0  0999 V2000
    5.5551   -2.0968   21.0951 C   0  0  0  0  0  0  0  0  0  0  0  0
    5.9099   -1.1654   19.9669 C   0  0  0  0  0  0  0  0  0  0  0  0
    5.2506   -1.2810   18.7807 N   0  0  0  0  0  0  0  0  0  0  0  0
    5.5023   -0.4460   17.7392 C   0  0  0  0  0  0  0  0  0  0  0  0
    6.4614    0.5591   17.8559 C   0  0  0  0  0  0  0  0  0  0  0  0
    7.1607    0.6983   19.0510 C   0  0  0  0  0  0  0  0  0  0  0  0
    6.9036   -0.1738   20.1109 C   0  0  0  0  0  0  0  0  0  0  0  0
    7.6485   -0.0281   21.3209 N   0  0  0  0  0  0  0  0  0  0  0  0
    9.0593   -0.2354   21.3794 C   0  0  0  0  0  0  0  0  0  0  0  0
    9.7116   -0.4799   20.3298 O   0  0  0  0  0  0  0  0  0  0  0  0
    9.7381   -0.1272   22.6271 N   0  0  0  0  0  0  0  0  0  0  0  0
   11.1526   -0.2763   22.6707 C   0  0  0  0  0  0  0  0  0  0  0  0
   11.7812   -1.2199   21.8505 C   0  0  0  0  0  0  0  0  0  0  0  0
   13.1733   -1.3193   21.8464 C   0  0  0  0  0  0  0  0  0  0  0  0
   13.9355   -0.4664   22.6501 C   0  0  0  0  0  0  0  0  0  0  0  0
   13.3068    0.4872   23.4566 C   0  0  0  0  0  0  0  0  0  0  0  0
   11.9152    0.5842   23.4662 C   0  0  0  0  0  0  0  0  0  0  0  0
  1  2  1  0
  2  3  2  0
  3  4  1  0
  4  5  2  0
  5  6  1  0
  6  7  2  0
  7  8  1  0
  7  2  1  0
  8  9  1  0
  9 10  2  0
  9 11  1  0
 11 12  1  0
 12 13  2  0
 13 14  1  0
 14 15  2  0
 15 16  1  0
 16 17  2  0
 17 12  1  0
M  END
>  <original SMILES>  (25) 
Cc1ncccc1NC(=O)Nc1ccccc1

>  <ref_pdb>  (25) 
Mpro-x0305_TDFS.pdb

>  <ref_mols>  (25) 
x1093,x0678,x0874

>  <N_hits>  (25) 
3

>  <Score_1>  (25) 
18.3503

>  <Score_2>  (25) 
0.3146

>  <Score_3>  (25) 
0.0171

>  <FeatStein>  (25) 
0.5109

$$$$
Test_25
     RDKit          3D

 17 18  0  0  0  0  0  0  0  0999 V2000
    5.6293   -2.0775   21.0589 C   0  0  0  0  0  0  0  0  0  0  0  0
    5.9476   -1.1381   19.9265 C   0  0  0  0  0  0  0  0  0  0  0  0
    5.2926   -1.2840   18.7412 N   0  0  0  0  0  0  0  0  0  0  0  0
    5.5117   -0.4446   17.6960 C   0  0  0  0  0  0  0  0  0  0  0  0
    6.4315    0.5971   17.8077 C   0  0  0  0  0  0  0  0  0  0  0  0
    7.1255    0.7683   19.0018 C   0  0  0  0  0  0  0  0  0  0  0  0
    6.9025   -0.1085   20.0656 C   0  0  0  0  0  0  0  0  0  0  0  0
    7.6419    0.0710   21.2745 N   0  0  0  0  0  0  0  0  0  0  0  0
    9.0510   -0.1428   21.3473 C   0  0  0  0  0  0  0  0  0  0  0  0
    9.7074   -0.4243   20.3096 O   0  0  0  0  0  0  0  0  0  0  0  0
    9.7238    0.0007   22.5947 N   0  0  0  0  0  0  0  0  0  0  0  0
   11.1372   -0.1554   22.6508 C   0  0  0  0  0  0  0  0  0  0  0  0
   11.7592   -1.1605   21.9017 C   0  0  0  0  0  0  0  0  0  0  0  0
   13.1505   -1.2703   21.9066 C   0  0  0  0  0  0  0  0  0  0  0  0
   13.9185   -0.3673   22.6476 C   0  0  0  0  0  0  0  0  0  0  0  0
   13.2964    0.6466   23.3823 C   0  0  0  0  0  0  0  0  0  0  0  0
   11.9056    0.7546   23.3830 C   0  0  0  0  0  0  0  0  0  0  0  0
  1  2  1  0
  2  3  2  0
  3  4  1  0
  4  5  2  0
  5  6  1  0
  6  7  2  0
  7  8  1  0
  7  2  1  0
  8  9  1  0
  9 10  2  0
  9 11  1  0
 11 12  1  0
 12 13  2  0
 13 14  1  0
 14 15  2  0
 15 16  1  0
 16 17  2  0
 17 12  1  0
M  END
>  <original SMILES>  (26) 
Cc1ncccc1NC(=O)Nc1ccccc1

>  <ref_pdb>  (26) 
Mpro-x0305_TDFS.pdb

>  <ref_mols>  (26) 
x1093,x0678,x0874

>  <N_hits>  (26) 
3

>  <Score_1>  (26) 
18.2058

>  <Score_2>  (26) 
0.2081

>  <Score_3>  (26) 
0.0114

>  <FeatStein>  (26) 
0.4970

$$$$
Test_26
     RDKit          3D

 17 18  0  0  0  0  0  0  0  0999 V2000
    9.5366   -0.1048   20.4016 O   0  0  0  0  0  0  0  0  0  0  0  0
    9.0580    0.3942   21.4549 C   0  0  0  0  0  0  0  0  0  0  0  0
    9.8581    0.4616   22.6339 N   0  0  0  0  0  0  0  0  0  0  0  0
   11.1979   -0.0162   22.6047 C   0  0  0  0  0  0  0  0  0  0  0  0
   11.5219   -1.1436   21.8416 C   0  0  0  0  0  0  0  0  0  0  0  0
   12.8475   -1.5737   21.7664 C   0  0  0  0  0  0  0  0  0  0  0  0
   13.8482   -0.8694   22.4420 C   0  0  0  0  0  0  0  0  0  0  0  0
   13.5247    0.2653   23.1922 C   0  0  0  0  0  0  0  0  0  0  0  0
   12.1996    0.6933   23.2734 C   0  0  0  0  0  0  0  0  0  0  0  0
    7.7320    0.9285   21.4650 N   0  0  0  0  0  0  0  0  0  0  0  0
    6.8899    0.8702   20.3131 C   0  0  0  0  0  0  0  0  0  0  0  0
    7.3345    0.2662   19.1308 C   0  0  0  0  0  0  0  0  0  0  0  0
    6.5155    0.2050   18.0490 N   0  0  0  0  0  0  0  0  0  0  0  0
    5.2633    0.7332   18.0788 C   0  0  0  0  0  0  0  0  0  0  0  0
    4.7850    1.3495   19.2381 C   0  0  0  0  0  0  0  0  0  0  0  0
    3.0255    2.0906   19.2822 Br  0  0  0  0  0  0  0  0  0  0  0  0
    5.6019    1.4067   20.3661 C   0  0  0  0  0  0  0  0  0  0  0  0
  1  2  2  0
  2  3  1  0
  2 10  1  0
  3  4  1  0
  4  5  2  0
  5  6  1  0
  6  7  2  0
  7  8  1  0
  8  9  2  0
  9  4  1  0
 10 11  1  0
 11 12  2  0
 12 13  1  0
 13 14  2  0
 14 15  1  0
 15 16  1  0
 15 17  2  0
 17 11  1  0
M  END
>  <original SMILES>  (27) 
O=C(Nc1ccccc1)Nc1cncc(Br)c1

>  <ref_pdb>  (27) 
Mpro-x0305_TDFS.pdb

>  <ref_mols>  (27) 
x1093,x0874,x0426,x0434,x0678

>  <N_hits>  (27) 
5

>  <Score_1>  (27) 
17.3719

>  <Score_2>  (27) 
0.1985

>  <Score_3>  (27) 
0.0114

>  <FeatStein>  (27) 
0.4655

$$$$
Test_27
     RDKit          3D

 17 18  0  0  0  0  0  0  0  0999 V2000
    9.4879   -0.0560   20.3860 O   0  0  0  0  0  0  0  0  0  0  0  0
    8.9968    0.4018   21.4521 C   0  0  0  0  0  0  0  0  0  0  0  0
    9.7889    0.4396   22.6379 N   0  0  0  0  0  0  0  0  0  0  0  0
   11.1346   -0.0208   22.6015 C   0  0  0  0  0  0  0  0  0  0  0  0
   11.4736   -1.1293   21.8174 C   0  0  0  0  0  0  0  0  0  0  0  0
   12.8046   -1.5412   21.7358 C   0  0  0  0  0  0  0  0  0  0  0  0
   13.7955   -0.8375   22.4262 C   0  0  0  0  0  0  0  0  0  0  0  0
   13.4570    0.2786   23.1975 C   0  0  0  0  0  0  0  0  0  0  0  0
   12.1266    0.6883   23.2849 C   0  0  0  0  0  0  0  0  0  0  0  0
    7.6643    0.9194   21.4714 N   0  0  0  0  0  0  0  0  0  0  0  0
    6.8300    0.8894   20.3128 C   0  0  0  0  0  0  0  0  0  0  0  0
    7.2700    0.2852   19.1289 C   0  0  0  0  0  0  0  0  0  0  0  0
    6.4582    0.2512   18.0405 N   0  0  0  0  0  0  0  0  0  0  0  0
    5.2179    0.8070   18.0653 C   0  0  0  0  0  0  0  0  0  0  0  0
    4.7445    1.4244   19.2261 C   0  0  0  0  0  0  0  0  0  0  0  0
    3.0017    2.2041   19.2633 Br  0  0  0  0  0  0  0  0  0  0  0  0
    5.5538    1.4540   20.3607 C   0  0  0  0  0  0  0  0  0  0  0  0
  1  2  2  0
  2  3  1  0
  2 10  1  0
  3  4  1  0
  4  5  2  0
  5  6  1  0
  6  7  2  0
  7  8  1  0
  8  9  2  0
  9  4  1  0
 10 11  1  0
 11 12  2  0
 12 13  1  0
 13 14  2  0
 14 15  1  0
 15 16  1  0
 15 17  2  0
 17 11  1  0
M  END
>  <original SMILES>  (28) 
O=C(Nc1ccccc1)Nc1cncc(Br)c1

>  <ref_pdb>  (28) 
Mpro-x0305_TDFS.pdb

>  <ref_mols>  (28) 
x1093,x0874,x0426,x0434,x0678

>  <N_hits>  (28) 
5

>  <Score_1>  (28) 
17.6299

>  <Score_2>  (28) 
0.2015

>  <Score_3>  (28) 
0.0114

>  <FeatStein>  (28) 
0.4798

$$$$
Test_28
     RDKit          3D

 17 18  0  0  0  0  0  0  0  0999 V2000
    9.4578   -0.0708   20.3615 O   0  0  0  0  0  0  0  0  0  0  0  0
    8.9588    0.3675   21.4322 C   0  0  0  0  0  0  0  0  0  0  0  0
    9.7472    0.3984   22.6205 N   0  0  0  0  0  0  0  0  0  0  0  0
   11.0980   -0.0467   22.5820 C   0  0  0  0  0  0  0  0  0  0  0  0
   11.4403   -1.1787   21.8338 C   0  0  0  0  0  0  0  0  0  0  0  0
   12.7751   -1.5772   21.7486 C   0  0  0  0  0  0  0  0  0  0  0  0
   13.7664   -0.8370   22.3992 C   0  0  0  0  0  0  0  0  0  0  0  0
   13.4243    0.3021   23.1344 C   0  0  0  0  0  0  0  0  0  0  0  0
   12.0901    0.6986   23.2255 C   0  0  0  0  0  0  0  0  0  0  0  0
    7.6207    0.8702   21.4544 N   0  0  0  0  0  0  0  0  0  0  0  0
    6.7899    0.8462   20.2930 C   0  0  0  0  0  0  0  0  0  0  0  0
    7.2411    0.2655   19.1017 C   0  0  0  0  0  0  0  0  0  0  0  0
    6.4327    0.2368   18.0106 N   0  0  0  0  0  0  0  0  0  0  0  0
    5.1850    0.7757   18.0400 C   0  0  0  0  0  0  0  0  0  0  0  0
    4.7005    1.3696   19.2084 C   0  0  0  0  0  0  0  0  0  0  0  0
    2.9474    2.1257   19.2521 Br  0  0  0  0  0  0  0  0  0  0  0  0
    5.5063    1.3932   20.3456 C   0  0  0  0  0  0  0  0  0  0  0  0
  1  2  2  0
  2  3  1  0
  2 10  1  0
  3  4  1  0
  4  5  2  0
  5  6  1  0
  6  7  2  0
  7  8  1  0
  8  9  2  0
  9  4  1  0
 10 11  1  0
 11 12  2  0
 12 13  1  0
 13 14  2  0
 14 15  1  0
 15 16  1  0
 15 17  2  0
 17 11  1  0
M  END
>  <original SMILES>  (29) 
O=C(Nc1ccccc1)Nc1cncc(Br)c1

>  <ref_pdb>  (29) 
Mpro-x0305_TDFS.pdb

>  <ref_mols>  (29) 
x1093,x0874,x0426,x0434,x0678

>  <N_hits>  (29) 
5

>  <Score_1>  (29) 
17.7714

>  <Score_2>  (29) 
0.2031

>  <Score_3>  (29) 
0.0114

>  <FeatStein>  (29) 
0.4907

$$$$
Test_29
     RDKit          3D

 17 18  0  0  0  0  0  0  0  0999 V2000
    9.5644   -0.0891   20.4476 O   0  0  0  0  0  0  0  0  0  0  0  0
    9.0499    0.3130   21.5251 C   0  0  0  0  0  0  0  0  0  0  0  0
    9.8327    0.3390   22.7173 N   0  0  0  0  0  0  0  0  0  0  0  0
   11.1948   -0.0696   22.6753 C   0  0  0  0  0  0  0  0  0  0  0  0
   11.5818   -1.1295   21.8474 C   0  0  0  0  0  0  0  0  0  0  0  0
   12.9278   -1.4883   21.7621 C   0  0  0  0  0  0  0  0  0  0  0  0
   13.8857   -0.7797   22.4929 C   0  0  0  0  0  0  0  0  0  0  0  0
   13.4990    0.2883   23.3085 C   0  0  0  0  0  0  0  0  0  0  0  0
   12.1536    0.6447   23.3994 C   0  0  0  0  0  0  0  0  0  0  0  0
    7.6990    0.7799   21.5521 N   0  0  0  0  0  0  0  0  0  0  0  0
    6.8736    0.7590   20.3869 C   0  0  0  0  0  0  0  0  0  0  0  0
    7.3273    0.1746   19.1983 C   0  0  0  0  0  0  0  0  0  0  0  0
    6.5239    0.1490   18.1034 N   0  0  0  0  0  0  0  0  0  0  0  0
    5.2790    0.6946   18.1264 C   0  0  0  0  0  0  0  0  0  0  0  0
    4.7921    1.2924   19.2918 C   0  0  0  0  0  0  0  0  0  0  0  0
    3.0430    2.0578   19.3264 Br  0  0  0  0  0  0  0  0  0  0  0  0
    5.5927    1.3129   20.4328 C   0  0  0  0  0  0  0  0  0  0  0  0
  1  2  2  0
  2  3  1  0
  2 10  1  0
  3  4  1  0
  4  5  2  0
  5  6  1  0
  6  7  2  0
  7  8  1  0
  8  9  2  0
  9  4  1  0
 10 11  1  0
 11 12  2  0
 12 13  1  0
 13 14  2  0
 14 15  1  0
 15 16  1  0
 15 17  2  0
 17 11  1  0
M  END
>  <original SMILES>  (30) 
O=C(Nc1ccccc1)Nc1cncc(Br)c1

>  <ref_pdb>  (30) 
Mpro-x0305_TDFS.pdb

>  <ref_mols>  (30) 
x1093,x0874,x0426,x0434,x0678

>  <N_hits>  (30) 
5

>  <Score_1>  (30) 
17.8346

>  <Score_2>  (30) 
0.2038

>  <Score_3>  (30) 
0.0114

>  <FeatStein>  (30) 
0.4835

$$$$
Test_30
     RDKit          3D

 17 18  0  0  0  0  0  0  0  0999 V2000
    9.5110   -0.0392   20.4510 O   0  0  0  0  0  0  0  0  0  0  0  0
    8.9718    0.3478   21.5220 C   0  0  0  0  0  0  0  0  0  0  0  0
    9.7315    0.3721   22.7290 N   0  0  0  0  0  0  0  0  0  0  0  0
   11.0987   -0.0209   22.7093 C   0  0  0  0  0  0  0  0  0  0  0  0
   11.5212   -1.0398   21.8481 C   0  0  0  0  0  0  0  0  0  0  0  0
   12.8730   -1.3814   21.7870 C   0  0  0  0  0  0  0  0  0  0  0  0
   13.8015   -0.6958   22.5755 C   0  0  0  0  0  0  0  0  0  0  0  0
   13.3796    0.3318   23.4248 C   0  0  0  0  0  0  0  0  0  0  0  0
   12.0282    0.6706   23.4915 C   0  0  0  0  0  0  0  0  0  0  0  0
    7.6153    0.7993   21.5273 N   0  0  0  0  0  0  0  0  0  0  0  0
    6.8124    0.7794   20.3465 C   0  0  0  0  0  0  0  0  0  0  0  0
    7.2879    0.1941   19.1669 C   0  0  0  0  0  0  0  0  0  0  0  0
    6.5056    0.1694   18.0569 N   0  0  0  0  0  0  0  0  0  0  0  0
    5.2613    0.7167   18.0559 C   0  0  0  0  0  0  0  0  0  0  0  0
    4.7530    1.3154   19.2117 C   0  0  0  0  0  0  0  0  0  0  0  0
    3.0045    2.0833   19.2127 Br  0  0  0  0  0  0  0  0  0  0  0  0
    5.5316    1.3351   20.3678 C   0  0  0  0  0  0  0  0  0  0  0  0
  1  2  2  0
  2  3  1  0
  2 10  1  0
  3  4  1  0
  4  5  2  0
  5  6  1  0
  6  7  2  0
  7  8  1  0
  8  9  2  0
  9  4  1  0
 10 11  1  0
 11 12  2  0
 12 13  1  0
 13 14  2  0
 14 15  1  0
 15 16  1  0
 15 17  2  0
 17 11  1  0
M  END
>  <original SMILES>  (31) 
O=C(Nc1ccccc1)Nc1cncc(Br)c1

>  <ref_pdb>  (31) 
Mpro-x0305_TDFS.pdb

>  <ref_mols>  (31) 
x1093,x0874,x0426,x0434,x0678

>  <N_hits>  (31) 
5

>  <Score_1>  (31) 
18.0165

>  <Score_2>  (31) 
0.2059

>  <Score_3>  (31) 
0.0114

>  <FeatStein>  (31) 
0.5101

$$$$
Test_31
     RDKit          3D

 17 18  0  0  0  0  0  0  0  0999 V2000
    9.4872   -0.0889   20.3465 O   0  0  0  0  0  0  0  0  0  0  0  0
    9.0736    0.6328   21.2931 C   0  0  0  0  0  0  0  0  0  0  0  0
    9.9031    0.8494   22.4332 N   0  0  0  0  0  0  0  0  0  0  0  0
   11.1995    0.2655   22.4827 C   0  0  0  0  0  0  0  0  0  0  0  0
   11.4288   -0.9802   21.8877 C   0  0  0  0  0  0  0  0  0  0  0  0
   12.7149   -1.5222   21.8849 C   0  0  0  0  0  0  0  0  0  0  0  0
   13.7714   -0.8132   22.4639 C   0  0  0  0  0  0  0  0  0  0  0  0
   13.5431    0.4378   23.0452 C   0  0  0  0  0  0  0  0  0  0  0  0
   12.2574    0.9785   23.0541 C   0  0  0  0  0  0  0  0  0  0  0  0
    7.7950    1.2674   21.2140 N   0  0  0  0  0  0  0  0  0  0  0  0
    6.9252    1.0681   20.0991 C   0  0  0  0  0  0  0  0  0  0  0  0
    7.3919    0.4630   18.9257 C   0  0  0  0  0  0  0  0  0  0  0  0
    6.5475    0.2663   17.8799 N   0  0  0  0  0  0  0  0  0  0  0  0
    5.2470    0.6584   17.9374 C   0  0  0  0  0  0  0  0  0  0  0  0
    4.7457    1.2705   19.0884 C   0  0  0  0  0  0  0  0  0  0  0  0
    3.4484    1.6601   19.1471 F   0  0  0  0  0  0  0  0  0  0  0  0
    5.5888    1.4651   20.1805 C   0  0  0  0  0  0  0  0  0  0  0  0
  1  2  2  0
  2  3  1  0
  2 10  1  0
  3  4  1  0
  4  5  2  0
  5  6  1  0
  6  7  2  0
  7  8  1  0
  8  9  2  0
  9  4  1  0
 10 11  1  0
 11 12  2  0
 12 13  1  0
 13 14  2  0
 14 15  1  0
 15 16  1  0
 15 17  2  0
 17 11  1  0
M  END
>  <original SMILES>  (32) 
O=C(Nc1ccccc1)Nc1cncc(F)c1

>  <ref_pdb>  (32) 
Mpro-x0305_TDFS.pdb

>  <ref_mols>  (32) 
x0874,x1093,x0107,x0434

>  <N_hits>  (32) 
4

>  <Score_1>  (32) 
16.0295

>  <Score_2>  (32) 
0.1832

>  <Score_3>  (32) 
0.0114

>  <FeatStein>  (32) 
0.4473

$$$$
Test_32
     RDKit          3D

 17 18  0  0  0  0  0  0  0  0999 V2000
    9.4373   -0.1112   20.3703 O   0  0  0  0  0  0  0  0  0  0  0  0
    9.0101    0.5854   21.3295 C   0  0  0  0  0  0  0  0  0  0  0  0
    9.8313    0.7889   22.4779 N   0  0  0  0  0  0  0  0  0  0  0  0
   11.1349    0.2208   22.5218 C   0  0  0  0  0  0  0  0  0  0  0  0
   11.3712   -1.0332   21.9472 C   0  0  0  0  0  0  0  0  0  0  0  0
   12.6633   -1.5605   21.9382 C   0  0  0  0  0  0  0  0  0  0  0  0
   13.7187   -0.8289   22.4905 C   0  0  0  0  0  0  0  0  0  0  0  0
   13.4832    0.4301   23.0512 C   0  0  0  0  0  0  0  0  0  0  0  0
   12.1915    0.9563   23.0664 C   0  0  0  0  0  0  0  0  0  0  0  0
    7.7238    1.2050   21.2572 N   0  0  0  0  0  0  0  0  0  0  0  0
    6.8619    1.0177   20.1341 C   0  0  0  0  0  0  0  0  0  0  0  0
    7.3327    0.4111   18.9630 C   0  0  0  0  0  0  0  0  0  0  0  0
    6.4957    0.2260   17.9093 N   0  0  0  0  0  0  0  0  0  0  0  0
    5.1988    0.6312   17.9565 C   0  0  0  0  0  0  0  0  0  0  0  0
    4.6936    1.2452   19.1048 C   0  0  0  0  0  0  0  0  0  0  0  0
    3.3998    1.6479   19.1532 F   0  0  0  0  0  0  0  0  0  0  0  0
    5.5289    1.4281   20.2048 C   0  0  0  0  0  0  0  0  0  0  0  0
  1  2  2  0
  2  3  1  0
  2 10  1  0
  3  4  1  0
  4  5  2  0
  5  6  1  0
  6  7  2  0
  7  8  1  0
  8  9  2  0
  9  4  1  0
 10 11  1  0
 11 12  2  0
 12 13  1  0
 13 14  2  0
 14 15  1  0
 15 16  1  0
 15 17  2  0
 17 11  1  0
M  END
>  <original SMILES>  (33) 
O=C(Nc1ccccc1)Nc1cncc(F)c1

>  <ref_pdb>  (33) 
Mpro-x0305_TDFS.pdb

>  <ref_mols>  (33) 
x0874,x1093,x0107,x0434

>  <N_hits>  (33) 
4

>  <Score_1>  (33) 
16.4215

>  <Score_2>  (33) 
0.1877

>  <Score_3>  (33) 
0.0114

>  <FeatStein>  (33) 
0.4664

$$$$
Test_33
     RDKit          3D

 17 18  0  0  0  0  0  0  0  0999 V2000
    9.5330   -0.1910   20.3511 O   0  0  0  0  0  0  0  0  0  0  0  0
    9.0623    0.3994   21.3600 C   0  0  0  0  0  0  0  0  0  0  0  0
    9.8629    0.5479   22.5312 N   0  0  0  0  0  0  0  0  0  0  0  0
   11.1942    0.0465   22.5432 C   0  0  0  0  0  0  0  0  0  0  0  0
   11.4994   -1.1437   21.8732 C   0  0  0  0  0  0  0  0  0  0  0  0
   12.8175   -1.6009   21.8355 C   0  0  0  0  0  0  0  0  0  0  0  0
   13.8296   -0.8620   22.4549 C   0  0  0  0  0  0  0  0  0  0  0  0
   13.5250    0.3343   23.1115 C   0  0  0  0  0  0  0  0  0  0  0  0
   12.2075    0.7899   23.1552 C   0  0  0  0  0  0  0  0  0  0  0  0
    7.7458    0.9555   21.3242 N   0  0  0  0  0  0  0  0  0  0  0  0
    6.9036    0.8188   20.1791 C   0  0  0  0  0  0  0  0  0  0  0  0
    7.4053    0.3018   18.9783 C   0  0  0  0  0  0  0  0  0  0  0  0
    6.5871    0.1635   17.9029 N   0  0  0  0  0  0  0  0  0  0  0  0
    5.2792    0.5308   17.9574 C   0  0  0  0  0  0  0  0  0  0  0  0
    4.7432    1.0559   19.1354 C   0  0  0  0  0  0  0  0  0  0  0  0
    3.4385    1.4208   19.1910 F   0  0  0  0  0  0  0  0  0  0  0  0
    5.5593    1.1890   20.2568 C   0  0  0  0  0  0  0  0  0  0  0  0
  1  2  2  0
  2  3  1  0
  2 10  1  0
  3  4  1  0
  4  5  2  0
  5  6  1  0
  6  7  2  0
  7  8  1  0
  8  9  2  0
  9  4  1  0
 10 11  1  0
 11 12  2  0
 12 13  1  0
 13 14  2  0
 14 15  1  0
 15 16  1  0
 15 17  2  0
 17 11  1  0
M  END
>  <original SMILES>  (34) 
O=C(Nc1ccccc1)Nc1cncc(F)c1

>  <ref_pdb>  (34) 
Mpro-x0305_TDFS.pdb

>  <ref_mols>  (34) 
x1093,x0874,x0107,x0434,x0678

>  <N_hits>  (34) 
5

>  <Score_1>  (34) 
17.0680

>  <Score_2>  (34) 
0.1951

>  <Score_3>  (34) 
0.0114

>  <FeatStein>  (34) 
0.4717

$$$$
Test_34
     RDKit          3D

 17 18  0  0  0  0  0  0  0  0999 V2000
    9.4035   -0.1105   20.3388 O   0  0  0  0  0  0  0  0  0  0  0  0
    8.9271    0.4607   21.3560 C   0  0  0  0  0  0  0  0  0  0  0  0
    9.7239    0.5941   22.5316 N   0  0  0  0  0  0  0  0  0  0  0  0
   11.0579    0.0996   22.5388 C   0  0  0  0  0  0  0  0  0  0  0  0
   11.3708   -1.0785   21.8514 C   0  0  0  0  0  0  0  0  0  0  0  0
   12.6914   -1.5281   21.8095 C   0  0  0  0  0  0  0  0  0  0  0  0
   13.6983   -0.7935   22.4424 C   0  0  0  0  0  0  0  0  0  0  0  0
   13.3859    0.3910   23.1166 C   0  0  0  0  0  0  0  0  0  0  0  0
   12.0659    0.8389   23.1644 C   0  0  0  0  0  0  0  0  0  0  0  0
    7.6077    1.0103   21.3260 N   0  0  0  0  0  0  0  0  0  0  0  0
    6.7692    0.8881   20.1766 C   0  0  0  0  0  0  0  0  0  0  0  0
    7.2537    0.3161   18.9938 C   0  0  0  0  0  0  0  0  0  0  0  0
    6.4384    0.1928   17.9144 N   0  0  0  0  0  0  0  0  0  0  0  0
    5.1506    0.6277   17.9473 C   0  0  0  0  0  0  0  0  0  0  0  0
    4.6324    1.2087   19.1068 C   0  0  0  0  0  0  0  0  0  0  0  0
    3.3478    1.6410   19.1409 F   0  0  0  0  0  0  0  0  0  0  0  0
    5.4450    1.3282   20.2323 C   0  0  0  0  0  0  0  0  0  0  0  0
  1  2  2  0
  2  3  1  0
  2 10  1  0
  3  4  1  0
  4  5  2  0
  5  6  1  0
  6  7  2  0
  7  8  1  0
  8  9  2  0
  9  4  1  0
 10 11  1  0
 11 12  2  0
 12 13  1  0
 13 14  2  0
 14 15  1  0
 15 16  1  0
 15 17  2  0
 17 11  1  0
M  END
>  <original SMILES>  (35) 
O=C(Nc1ccccc1)Nc1cncc(F)c1

>  <ref_pdb>  (35) 
Mpro-x0305_TDFS.pdb

>  <ref_mols>  (35) 
x0874,x1093,x0107,x0434

>  <N_hits>  (35) 
4

>  <Score_1>  (35) 
17.1268

>  <Score_2>  (35) 
0.1957

>  <Score_3>  (35) 
0.0114

>  <FeatStein>  (35) 
0.4897

$$$$
Test_35
     RDKit          3D

 17 18  0  0  0  0  0  0  0  0999 V2000
    9.4405   -0.2129   20.3303 O   0  0  0  0  0  0  0  0  0  0  0  0
    8.9283    0.2507   21.3841 C   0  0  0  0  0  0  0  0  0  0  0  0
    9.7117    0.3388   22.5729 N   0  0  0  0  0  0  0  0  0  0  0  0
   11.0718   -0.0781   22.5533 C   0  0  0  0  0  0  0  0  0  0  0  0
   11.4541   -1.1812   21.7816 C   0  0  0  0  0  0  0  0  0  0  0  0
   12.7984   -1.5506   21.7164 C   0  0  0  0  0  0  0  0  0  0  0  0
   13.7593   -0.8098   22.4107 C   0  0  0  0  0  0  0  0  0  0  0  0
   13.3772    0.3006   23.1696 C   0  0  0  0  0  0  0  0  0  0  0  0
   12.0335    0.6678   23.2407 C   0  0  0  0  0  0  0  0  0  0  0  0
    7.5797    0.7251   21.3853 N   0  0  0  0  0  0  0  0  0  0  0  0
    6.7539    0.6438   20.2231 C   0  0  0  0  0  0  0  0  0  0  0  0
    7.2540    0.1213   19.0240 C   0  0  0  0  0  0  0  0  0  0  0  0
    6.4507    0.0362   17.9319 N   0  0  0  0  0  0  0  0  0  0  0  0
    5.1603    0.4627   17.9681 C   0  0  0  0  0  0  0  0  0  0  0  0
    4.6267    0.9951   19.1440 C   0  0  0  0  0  0  0  0  0  0  0  0
    3.3394    1.4190   19.1812 F   0  0  0  0  0  0  0  0  0  0  0  0
    5.4268    1.0745   20.2819 C   0  0  0  0  0  0  0  0  0  0  0  0
  1  2  2  0
  2  3  1  0
  2 10  1  0
  3  4  1  0
  4  5  2  0
  5  6  1  0
  6  7  2  0
  7  8  1  0
  8  9  2  0
  9  4  1  0
 10 11  1  0
 11 12  2  0
 12 13  1  0
 13 14  2  0
 14 15  1  0
 15 16  1  0
 15 17  2  0
 17 11  1  0
M  END
>  <original SMILES>  (36) 
O=C(Nc1ccccc1)Nc1cncc(F)c1

>  <ref_pdb>  (36) 
Mpro-x0305_TDFS.pdb

>  <ref_mols>  (36) 
x1093,x0874,x0107,x0678,x0434

>  <N_hits>  (36) 
5

>  <Score_1>  (36) 
17.9067

>  <Score_2>  (36) 
0.2046

>  <Score_3>  (36) 
0.0114

>  <FeatStein>  (36) 
0.5025

$$$$
Test_36
     RDKit          3D

 25 27  0  0  0  0  0  0  0  0999 V2000
   12.6824    7.8064   25.4888 C   0  0  0  0  0  0  0  0  0  0  0  0
   11.9969    6.5964   24.9432 C   0  0  0  0  0  0  0  0  0  0  0  0
   10.7379    6.5743   24.8835 O   0  0  0  0  0  0  0  0  0  0  0  0
   12.7683    5.4400   24.5825 N   0  0  0  0  0  0  0  0  0  0  0  0
   12.2366    4.3003   23.8850 C   0  0  0  0  0  0  0  0  0  0  0  0
   10.9611    4.3843   23.3072 C   0  0  0  0  0  0  0  0  0  0  0  0
   10.4115    3.2837   22.6500 C   0  0  0  0  0  0  0  0  0  0  0  0
   11.1346    2.0909   22.5657 C   0  0  0  0  0  0  0  0  0  0  0  0
   10.5483    0.9465   21.9578 N   0  0  0  0  0  0  0  0  0  0  0  0
    9.3469    1.0867   21.2032 C   0  0  0  0  0  0  0  0  0  0  0  0
    8.8246    2.2249   21.0642 O   0  0  0  0  0  0  0  0  0  0  0  0
    8.7321   -0.0678   20.6263 N   0  0  0  0  0  0  0  0  0  0  0  0
    7.5635    0.0239   19.8081 C   0  0  0  0  0  0  0  0  0  0  0  0
    7.6384    0.7585   18.6214 C   0  0  0  0  0  0  0  0  0  0  0  0
    6.5278    0.8552   17.7946 C   0  0  0  0  0  0  0  0  0  0  0  0
    5.3533    0.2056   18.1564 C   0  0  0  0  0  0  0  0  0  0  0  0
    5.2819   -0.5036   19.3118 N   0  0  0  0  0  0  0  0  0  0  0  0
    6.3331   -0.5773   20.1900 C   0  0  0  0  0  0  0  0  0  0  0  0
    6.1966   -1.2381   21.4944 N   0  0  0  0  0  0  0  0  0  0  0  0
    6.9493   -2.5045   21.5778 C   0  0  0  0  0  0  0  0  0  0  0  0
    7.2942   -2.7415   23.0487 C   0  0  0  0  0  0  0  0  0  0  0  0
    6.8662   -1.4785   23.7706 C   0  0  0  0  0  0  0  0  0  0  0  0
    6.6730   -0.4722   22.6559 C   0  0  0  0  0  0  0  0  0  0  0  0
   12.3933    1.9876   23.1601 C   0  0  0  0  0  0  0  0  0  0  0  0
   12.9426    3.0854   23.8209 C   0  0  0  0  0  0  0  0  0  0  0  0
  1  2  1  0
  2  3  2  0
  2  4  1  0
  4  5  1  0
  5  6  2  0
  6  7  1  0
  7  8  2  0
  8  9  1  0
  8 24  1  0
  9 10  1  0
 10 11  2  0
 10 12  1  0
 12 13  1  0
 13 14  2  0
 14 15  1  0
 15 16  2  0
 16 17  1  0
 17 18  2  0
 18 19  1  0
 18 13  1  0
 19 20  1  0
 20 21  1  0
 21 22  1  0
 22 23  1  0
 23 19  1  0
 24 25  2  0
 25  5  1  0
M  END
>  <original SMILES>  (37) 
CC(=O)Nc1ccc(NC(=O)Nc2cccnc2N2CCCC2)cc1

>  <ref_pdb>  (37) 
Mpro-x0305_TDFS.pdb

>  <ref_mols>  (37) 
x1093,x0874,x0107,x0946

>  <N_hits>  (37) 
4

>  <Score_1>  (37) 
20.8368

>  <Score_2>  (37) 
0.5953

>  <Score_3>  (37) 
0.0286

>  <FeatStein>  (37) 
0.3742

$$$$
Test_37
     RDKit          3D

 25 27  0  0  0  0  0  0  0  0999 V2000
   12.7192    7.7596   25.4996 C   0  0  0  0  0  0  0  0  0  0  0  0
   12.0163    6.5740   24.9235 C   0  0  0  0  0  0  0  0  0  0  0  0
   10.7585    6.5823   24.8403 O   0  0  0  0  0  0  0  0  0  0  0  0
   12.7673    5.4053   24.5599 N   0  0  0  0  0  0  0  0  0  0  0  0
   12.2226    4.2885   23.8359 C   0  0  0  0  0  0  0  0  0  0  0  0
   10.9677    4.4162   23.2221 C   0  0  0  0  0  0  0  0  0  0  0  0
   10.4051    3.3386   22.5381 C   0  0  0  0  0  0  0  0  0  0  0  0
   11.0945    2.1255   22.4629 C   0  0  0  0  0  0  0  0  0  0  0  0
   10.4925    1.0048   21.8268 N   0  0  0  0  0  0  0  0  0  0  0  0
    9.2581    1.1675   21.1323 C   0  0  0  0  0  0  0  0  0  0  0  0
    8.7202    2.3053   21.0705 O   0  0  0  0  0  0  0  0  0  0  0  0
    8.6290    0.0351   20.5277 N   0  0  0  0  0  0  0  0  0  0  0  0
    7.4251    0.1527   19.7660 C   0  0  0  0  0  0  0  0  0  0  0  0
    7.5058    0.6710   18.4705 C   0  0  0  0  0  0  0  0  0  0  0  0
    6.3592    0.7843   17.6965 C   0  0  0  0  0  0  0  0  0  0  0  0
    5.1417    0.3665   18.2213 C   0  0  0  0  0  0  0  0  0  0  0  0
    5.0655   -0.1325   19.4815 N   0  0  0  0  0  0  0  0  0  0  0  0
    6.1598   -0.2070   20.3052 C   0  0  0  0  0  0  0  0  0  0  0  0
    6.0360   -0.6260   21.7073 N   0  0  0  0  0  0  0  0  0  0  0  0
    6.7790   -1.8658   22.0036 C   0  0  0  0  0  0  0  0  0  0  0  0
    7.1425   -1.8436   23.4888 C   0  0  0  0  0  0  0  0  0  0  0  0
    6.7355   -0.4686   23.9818 C   0  0  0  0  0  0  0  0  0  0  0  0
    6.5352    0.3275   22.7095 C   0  0  0  0  0  0  0  0  0  0  0  0
   12.3316    1.9789   23.0927 C   0  0  0  0  0  0  0  0  0  0  0  0
   12.8938    3.0535   23.7801 C   0  0  0  0  0  0  0  0  0  0  0  0
  1  2  1  0
  2  3  2  0
  2  4  1  0
  4  5  1  0
  5  6  2  0
  6  7  1  0
  7  8  2  0
  8  9  1  0
  8 24  1  0
  9 10  1  0
 10 11  2  0
 10 12  1  0
 12 13  1  0
 13 14  2  0
 14 15  1  0
 15 16  2  0
 16 17  1  0
 17 18  2  0
 18 19  1  0
 18 13  1  0
 19 20  1  0
 20 21  1  0
 21 22  1  0
 22 23  1  0
 23 19  1  0
 24 25  2  0
 25  5  1  0
M  END
>  <original SMILES>  (38) 
CC(=O)Nc1ccc(NC(=O)Nc2cccnc2N2CCCC2)cc1

>  <ref_pdb>  (38) 
Mpro-x0305_TDFS.pdb

>  <ref_mols>  (38) 
x1093,x0107,x0946

>  <N_hits>  (38) 
3

>  <Score_1>  (38) 
20.0107

>  <Score_2>  (38) 
0.4574

>  <Score_3>  (38) 
0.0229

>  <FeatStein>  (38) 
0.3483

$$$$
Test_38
     RDKit          3D

 17 18  0  0  0  0  0  0  0  0999 V2000
    3.4628    2.1247   19.2737 C   0  0  0  0  0  0  0  0  0  0  0  0
    4.8357    1.5222   19.2352 C   0  0  0  0  0  0  0  0  0  0  0  0
    5.2970    0.8740   18.0813 C   0  0  0  0  0  0  0  0  0  0  0  0
    6.5260    0.2940   18.0618 N   0  0  0  0  0  0  0  0  0  0  0  0
    7.3386    0.3206   19.1490 C   0  0  0  0  0  0  0  0  0  0  0  0
    6.9114    0.9410   20.3281 C   0  0  0  0  0  0  0  0  0  0  0  0
    7.7458    0.9597   21.4870 N   0  0  0  0  0  0  0  0  0  0  0  0
    9.0706    0.4228   21.4679 C   0  0  0  0  0  0  0  0  0  0  0  0
    9.5546   -0.0436   20.4021 O   0  0  0  0  0  0  0  0  0  0  0  0
    9.8636    0.4504   22.6532 N   0  0  0  0  0  0  0  0  0  0  0  0
   11.2022   -0.0303   22.6169 C   0  0  0  0  0  0  0  0  0  0  0  0
   11.5223   -1.1502   21.8410 C   0  0  0  0  0  0  0  0  0  0  0  0
   12.8467   -1.5826   21.7592 C   0  0  0  0  0  0  0  0  0  0  0  0
   13.8502   -0.8881   22.4410 C   0  0  0  0  0  0  0  0  0  0  0  0
   13.5305    0.2391   23.2040 C   0  0  0  0  0  0  0  0  0  0  0  0
   12.2066    0.6693   23.2917 C   0  0  0  0  0  0  0  0  0  0  0  0
    5.6472    1.5310   20.3735 C   0  0  0  0  0  0  0  0  0  0  0  0
  1  2  1  0
  2  3  2  0
  3  4  1  0
  4  5  2  0
  5  6  1  0
  6  7  1  0
  6 17  2  0
  7  8  1  0
  8  9  2  0
  8 10  1  0
 10 11  1  0
 11 12  2  0
 12 13  1  0
 13 14  2  0
 14 15  1  0
 15 16  2  0
 16 11  1  0
 17  2  1  0
M  END
>  <original SMILES>  (39) 
Cc1cncc(NC(=O)Nc2ccccc2)c1

>  <ref_pdb>  (39) 
Mpro-x0305_TDFS.pdb

>  <ref_mols>  (39) 
x1093,x0874,x0426,x0434,x0678

>  <N_hits>  (39) 
5

>  <Score_1>  (39) 
17.4574

>  <Score_2>  (39) 
0.1995

>  <Score_3>  (39) 
0.0114

>  <FeatStein>  (39) 
0.4608

$$$$
Test_39
     RDKit          3D

 17 18  0  0  0  0  0  0  0  0999 V2000
    3.4213    2.0615   19.2930 C   0  0  0  0  0  0  0  0  0  0  0  0
    4.7986    1.4695   19.2487 C   0  0  0  0  0  0  0  0  0  0  0  0
    5.2645    0.8357   18.0887 C   0  0  0  0  0  0  0  0  0  0  0  0
    6.4978    0.2649   18.0637 N   0  0  0  0  0  0  0  0  0  0  0  0
    7.3103    0.2872   19.1510 C   0  0  0  0  0  0  0  0  0  0  0  0
    6.8786    0.8932   20.3360 C   0  0  0  0  0  0  0  0  0  0  0  0
    7.7130    0.9070   21.4950 N   0  0  0  0  0  0  0  0  0  0  0  0
    9.0468    0.3932   21.4669 C   0  0  0  0  0  0  0  0  0  0  0  0
    9.5382   -0.0472   20.3935 O   0  0  0  0  0  0  0  0  0  0  0  0
    9.8396    0.4148   22.6525 N   0  0  0  0  0  0  0  0  0  0  0  0
   11.1862   -0.0423   22.6082 C   0  0  0  0  0  0  0  0  0  0  0  0
   11.5287   -1.1315   21.7989 C   0  0  0  0  0  0  0  0  0  0  0  0
   12.8605   -1.5393   21.7105 C   0  0  0  0  0  0  0  0  0  0  0  0
   13.8489   -0.8503   22.4194 C   0  0  0  0  0  0  0  0  0  0  0  0
   13.5068    0.2467   23.2161 C   0  0  0  0  0  0  0  0  0  0  0  0
   12.1755    0.6520   23.3102 C   0  0  0  0  0  0  0  0  0  0  0  0
    5.6102    1.4735   20.3870 C   0  0  0  0  0  0  0  0  0  0  0  0
  1  2  1  0
  2  3  2  0
  3  4  1  0
  4  5  2  0
  5  6  1  0
  6  7  1  0
  6 17  2  0
  7  8  1  0
  8  9  2  0
  8 10  1  0
 10 11  1  0
 11 12  2  0
 12 13  1  0
 13 14  2  0
 14 15  1  0
 15 16  2  0
 16 11  1  0
 17  2  1  0
M  END
>  <original SMILES>  (40) 
Cc1cncc(NC(=O)Nc2ccccc2)c1

>  <ref_pdb>  (40) 
Mpro-x0305_TDFS.pdb

>  <ref_mols>  (40) 
x1093,x0874,x0426,x0434,x0678

>  <N_hits>  (40) 
5

>  <Score_1>  (40) 
17.6943

>  <Score_2>  (40) 
0.2022

>  <Score_3>  (40) 
0.0114

>  <FeatStein>  (40) 
0.4689

$$$$
Test_40
     RDKit          3D

 17 18  0  0  0  0  0  0  0  0999 V2000
    3.4401    2.1105   19.3223 C   0  0  0  0  0  0  0  0  0  0  0  0
    4.8132    1.5090   19.2741 C   0  0  0  0  0  0  0  0  0  0  0  0
    5.2862    0.9069   18.1001 C   0  0  0  0  0  0  0  0  0  0  0  0
    6.5152    0.3273   18.0703 N   0  0  0  0  0  0  0  0  0  0  0  0
    7.3166    0.3101   19.1660 C   0  0  0  0  0  0  0  0  0  0  0  0
    6.8774    0.8834   20.3643 C   0  0  0  0  0  0  0  0  0  0  0  0
    7.6998    0.8555   21.5316 N   0  0  0  0  0  0  0  0  0  0  0  0
    9.0410    0.3620   21.4943 C   0  0  0  0  0  0  0  0  0  0  0  0
    9.5495   -0.0217   20.4071 O   0  0  0  0  0  0  0  0  0  0  0  0
    9.8215    0.3401   22.6880 N   0  0  0  0  0  0  0  0  0  0  0  0
   11.1749   -0.0958   22.6371 C   0  0  0  0  0  0  0  0  0  0  0  0
   11.5368   -1.1571   21.7996 C   0  0  0  0  0  0  0  0  0  0  0  0
   12.8748   -1.5426   21.7061 C   0  0  0  0  0  0  0  0  0  0  0  0
   13.8500   -0.8591   22.4382 C   0  0  0  0  0  0  0  0  0  0  0  0
   13.4884    0.2102   23.2633 C   0  0  0  0  0  0  0  0  0  0  0  0
   12.1509    0.5932   23.3626 C   0  0  0  0  0  0  0  0  0  0  0  0
    5.6130    1.4721   20.4201 C   0  0  0  0  0  0  0  0  0  0  0  0
  1  2  1  0
  2  3  2  0
  3  4  1  0
  4  5  2  0
  5  6  1  0
  6  7  1  0
  6 17  2  0
  7  8  1  0
  8  9  2  0
  8 10  1  0
 10 11  1  0
 11 12  2  0
 12 13  1  0
 13 14  2  0
 14 15  1  0
 15 16  2  0
 16 11  1  0
 17  2  1  0
M  END
>  <original SMILES>  (41) 
Cc1cncc(NC(=O)Nc2ccccc2)c1

>  <ref_pdb>  (41) 
Mpro-x0305_TDFS.pdb

>  <ref_mols>  (41) 
x1093,x0874,x0426,x0434,x0678

>  <N_hits>  (41) 
5

>  <Score_1>  (41) 
17.9225

>  <Score_2>  (41) 
0.2048

>  <Score_3>  (41) 
0.0114

>  <FeatStein>  (41) 
0.4810

$$$$
Test_41
     RDKit          3D

 17 18  0  0  0  0  0  0  0  0999 V2000
    3.3877    2.0537   19.2663 C   0  0  0  0  0  0  0  0  0  0  0  0
    4.7692    1.4704   19.2426 C   0  0  0  0  0  0  0  0  0  0  0  0
    5.2654    0.8614   18.0818 C   0  0  0  0  0  0  0  0  0  0  0  0
    6.5024    0.2981   18.0744 N   0  0  0  0  0  0  0  0  0  0  0  0
    7.2896    0.3044   19.1803 C   0  0  0  0  0  0  0  0  0  0  0  0
    6.8274    0.8853   20.3663 C   0  0  0  0  0  0  0  0  0  0  0  0
    7.6349    0.8818   21.5442 N   0  0  0  0  0  0  0  0  0  0  0  0
    8.9888    0.4231   21.5258 C   0  0  0  0  0  0  0  0  0  0  0  0
    9.5211    0.0497   20.4465 O   0  0  0  0  0  0  0  0  0  0  0  0
    9.7540    0.4246   22.7296 N   0  0  0  0  0  0  0  0  0  0  0  0
   11.1187    0.0237   22.6976 C   0  0  0  0  0  0  0  0  0  0  0  0
   11.5157   -1.0418   21.8817 C   0  0  0  0  0  0  0  0  0  0  0  0
   12.8642   -1.3935   21.8061 C   0  0  0  0  0  0  0  0  0  0  0  0
   13.8146   -0.6720   22.5343 C   0  0  0  0  0  0  0  0  0  0  0  0
   13.4178    0.4014   23.3377 C   0  0  0  0  0  0  0  0  0  0  0  0
   12.0699    0.7506   23.4191 C   0  0  0  0  0  0  0  0  0  0  0  0
    5.5546    1.4573   20.3991 C   0  0  0  0  0  0  0  0  0  0  0  0
  1  2  1  0
  2  3  2  0
  3  4  1  0
  4  5  2  0
  5  6  1  0
  6  7  1  0
  6 17  2  0
  7  8  1  0
  8  9  2  0
  8 10  1  0
 10 11  1  0
 11 12  2  0
 12 13  1  0
 13 14  2  0
 14 15  1  0
 15 16  2  0
 16 11  1  0
 17  2  1  0
M  END
>  <original SMILES>  (42) 
Cc1cncc(NC(=O)Nc2ccccc2)c1

>  <ref_pdb>  (42) 
Mpro-x0305_TDFS.pdb

>  <ref_mols>  (42) 
x1093,x0874,x0426,x0434,x0678

>  <N_hits>  (42) 
5

>  <Score_1>  (42) 
18.0489

>  <Score_2>  (42) 
0.2063

>  <Score_3>  (42) 
0.0114

>  <FeatStein>  (42) 
0.4961

$$$$
Test_42
     RDKit          3D

 17 18  0  0  0  0  0  0  0  0999 V2000
    3.3664    1.9874   19.3171 C   0  0  0  0  0  0  0  0  0  0  0  0
    4.7669    1.4519   19.2814 C   0  0  0  0  0  0  0  0  0  0  0  0
    5.2891    0.9011   18.1031 C   0  0  0  0  0  0  0  0  0  0  0  0
    6.5443    0.3802   18.0836 N   0  0  0  0  0  0  0  0  0  0  0  0
    7.3254    0.3738   19.1939 C   0  0  0  0  0  0  0  0  0  0  0  0
    6.8380    0.8969   20.3966 C   0  0  0  0  0  0  0  0  0  0  0  0
    7.6393    0.8790   21.5786 N   0  0  0  0  0  0  0  0  0  0  0  0
    8.9900    0.4108   21.5638 C   0  0  0  0  0  0  0  0  0  0  0  0
    9.5253    0.0416   20.4845 O   0  0  0  0  0  0  0  0  0  0  0  0
    9.7489    0.3980   22.7715 N   0  0  0  0  0  0  0  0  0  0  0  0
   11.1109   -0.0123   22.7436 C   0  0  0  0  0  0  0  0  0  0  0  0
   11.5106   -1.0529   21.8974 C   0  0  0  0  0  0  0  0  0  0  0  0
   12.8573   -1.4125   21.8273 C   0  0  0  0  0  0  0  0  0  0  0  0
   13.8034   -0.7235   22.5917 C   0  0  0  0  0  0  0  0  0  0  0  0
   13.4041    0.3254   23.4256 C   0  0  0  0  0  0  0  0  0  0  0  0
   12.0579    0.6823   23.5014 C   0  0  0  0  0  0  0  0  0  0  0  0
    5.5465    1.4245   20.4415 C   0  0  0  0  0  0  0  0  0  0  0  0
  1  2  1  0
  2  3  2  0
  3  4  1  0
  4  5  2  0
  5  6  1  0
  6  7  1  0
  6 17  2  0
  7  8  1  0
  8  9  2  0
  8 10  1  0
 10 11  1  0
 11 12  2  0
 12 13  1  0
 13 14  2  0
 14 15  1  0
 15 16  2  0
 16 11  1  0
 17  2  1  0
M  END
>  <original SMILES>  (43) 
Cc1cncc(NC(=O)Nc2ccccc2)c1

>  <ref_pdb>  (43) 
Mpro-x0305_TDFS.pdb

>  <ref_mols>  (43) 
x1093,x0874,x0426,x0434,x0678

>  <N_hits>  (43) 
5

>  <Score_1>  (43) 
18.1333

>  <Score_2>  (43) 
0.2072

>  <Score_3>  (43) 
0.0114

>  <FeatStein>  (43) 
0.5070

$$$$
Test_43
     RDKit          3D

 25 26  0  0  0  0  0  0  0  0999 V2000
   12.5718    7.6537   25.4674 C   0  0  0  0  0  0  0  0  0  0  0  0
   11.8951    6.4577   24.8474 C   0  0  0  0  0  0  0  0  0  0  0  0
   10.6674    6.4753   24.8261 O   0  0  0  0  0  0  0  0  0  0  0  0
   12.6845    5.4311   24.3492 N   0  0  0  0  0  0  0  0  0  0  0  0
   12.1730    4.2672   23.7442 C   0  0  0  0  0  0  0  0  0  0  0  0
   10.9060    4.3862   23.1496 C   0  0  0  0  0  0  0  0  0  0  0  0
   10.3321    3.2747   22.5447 C   0  0  0  0  0  0  0  0  0  0  0  0
   10.9690    2.0824   22.5176 C   0  0  0  0  0  0  0  0  0  0  0  0
   10.5056    0.8423   22.0019 N   0  0  0  0  0  0  0  0  0  0  0  0
    9.2541    0.8260   21.3333 C   0  0  0  0  0  0  0  0  0  0  0  0
    8.6789    1.8522   21.1833 O   0  0  0  0  0  0  0  0  0  0  0  0
    8.6891   -0.3965   20.8617 N   0  0  0  0  0  0  0  0  0  0  0  0
    7.5636   -0.4716   19.9726 C   0  0  0  0  0  0  0  0  0  0  0  0
    7.5817    0.4426   18.9576 C   0  0  0  0  0  0  0  0  0  0  0  0
    6.5124    0.4624   18.0889 C   0  0  0  0  0  0  0  0  0  0  0  0
    6.5701    1.6506   16.8362 Cl  0  0  0  0  0  0  0  0  0  0  0  0
    5.4745   -0.4263   18.2672 C   0  0  0  0  0  0  0  0  0  0  0  0
    5.4919   -1.2820   19.2419 N   0  0  0  0  0  0  0  0  0  0  0  0
    6.4990   -1.3616   20.1264 C   0  0  0  0  0  0  0  0  0  0  0  0
    6.4859   -2.2217   21.0699 O   0  0  0  0  0  0  0  0  0  0  0  0
    6.4730   -3.0771   22.0084 C   0  0  0  0  0  0  0  0  0  0  0  0
    7.7108   -4.0217   22.1043 C   0  0  0  0  0  0  0  0  0  0  0  0
    6.4045   -2.5118   23.4619 C   0  0  0  0  0  0  0  0  0  0  0  0
   12.2278    1.9466   23.1019 C   0  0  0  0  0  0  0  0  0  0  0  0
   12.7995    3.0461   23.7034 C   0  0  0  0  0  0  0  0  0  0  0  0
  1  2  1  0
  2  3  2  0
  2  4  1  0
  4  5  1  0
  5  6  2  0
  6  7  1  0
  7  8  2  0
  8  9  1  0
  8 24  1  0
  9 10  1  0
 10 11  2  0
 10 12  1  0
 12 13  1  0
 13 14  2  0
 14 15  1  0
 15 16  1  0
 15 17  2  0
 17 18  1  0
 18 19  2  0
 19 20  1  0
 19 13  1  0
 20 21  1  0
 21 22  1  0
 21 23  1  0
 24 25  2  0
 25  5  1  0
M  END
>  <original SMILES>  (44) 
CC(=O)Nc1ccc(NC(=O)Nc2cc(Cl)cnc2OC(C)C)cc1

>  <ref_pdb>  (44) 
Mpro-x0305_TDFS.pdb

>  <ref_mols>  (44) 
x1093,x0107,x0104,x2097,x0946

>  <N_hits>  (44) 
5

>  <Score_1>  (44) 
22.6110

>  <Score_2>  (44) 
0.5168

>  <Score_3>  (44) 
0.0229

>  <FeatStein>  (44) 
0.2994

$$$$
Test_44
     RDKit          3D

 25 26  0  0  0  0  0  0  0  0999 V2000
   12.8827    7.3618   25.2868 C   0  0  0  0  0  0  0  0  0  0  0  0
   12.2021    6.2031   24.6036 C   0  0  0  0  0  0  0  0  0  0  0  0
   11.0251    6.3669   24.2936 O   0  0  0  0  0  0  0  0  0  0  0  0
   12.9318    5.0460   24.3716 N   0  0  0  0  0  0  0  0  0  0  0  0
   12.4117    3.9004   23.7396 C   0  0  0  0  0  0  0  0  0  0  0  0
   11.6101    4.1293   22.6090 C   0  0  0  0  0  0  0  0  0  0  0  0
   11.0515    3.0462   21.9415 C   0  0  0  0  0  0  0  0  0  0  0  0
   11.2643    1.7779   22.3589 C   0  0  0  0  0  0  0  0  0  0  0  0
   10.7257    0.5715   21.8366 N   0  0  0  0  0  0  0  0  0  0  0  0
    9.4379    0.6204   21.2424 C   0  0  0  0  0  0  0  0  0  0  0  0
    8.8941    1.6708   21.1554 O   0  0  0  0  0  0  0  0  0  0  0  0
    8.8011   -0.5661   20.7706 N   0  0  0  0  0  0  0  0  0  0  0  0
    7.6242   -0.5738   19.9474 C   0  0  0  0  0  0  0  0  0  0  0  0
    7.6385    0.3381   18.9303 C   0  0  0  0  0  0  0  0  0  0  0  0
    6.5244    0.4219   18.1240 C   0  0  0  0  0  0  0  0  0  0  0  0
    6.5810    1.6050   16.8665 Cl  0  0  0  0  0  0  0  0  0  0  0  0
    5.4475   -0.4037   18.3638 C   0  0  0  0  0  0  0  0  0  0  0  0
    5.4697   -1.2593   19.3385 N   0  0  0  0  0  0  0  0  0  0  0  0
    6.5191   -1.3990   20.1643 C   0  0  0  0  0  0  0  0  0  0  0  0
    6.5089   -2.2571   21.1096 O   0  0  0  0  0  0  0  0  0  0  0  0
    6.4988   -3.1106   22.0499 C   0  0  0  0  0  0  0  0  0  0  0  0
    7.7142   -4.0865   22.1153 C   0  0  0  0  0  0  0  0  0  0  0  0
    6.4828   -2.5418   23.5035 C   0  0  0  0  0  0  0  0  0  0  0  0
   12.0584    1.5324   23.4786 C   0  0  0  0  0  0  0  0  0  0  0  0
   12.6130    2.6037   24.1435 C   0  0  0  0  0  0  0  0  0  0  0  0
  1  2  1  0
  2  3  2  0
  2  4  1  0
  4  5  1  0
  5  6  2  0
  6  7  1  0
  7  8  2  0
  8  9  1  0
  8 24  1  0
  9 10  1  0
 10 11  2  0
 10 12  1  0
 12 13  1  0
 13 14  2  0
 14 15  1  0
 15 16  1  0
 15 17  2  0
 17 18  1  0
 18 19  2  0
 19 20  1  0
 19 13  1  0
 20 21  1  0
 21 22  1  0
 21 23  1  0
 24 25  2  0
 25  5  1  0
M  END
>  <original SMILES>  (45) 
CC(=O)Nc1ccc(NC(=O)Nc2cc(Cl)cnc2OC(C)C)cc1

>  <ref_pdb>  (45) 
Mpro-x0305_TDFS.pdb

>  <ref_mols>  (45) 
x1093,x0107,x2097,x0946

>  <N_hits>  (45) 
4

>  <Score_1>  (45) 
22.6695

>  <Score_2>  (45) 
0.7772

>  <Score_3>  (45) 
0.0343

>  <FeatStein>  (45) 
0.3582

$$$$
Test_45
     RDKit          3D

 18 19  0  0  0  0  0  0  0  0999 V2000
    3.5891    2.6796   20.4371 C   0  0  0  0  0  0  0  0  0  0  0  0
    4.7584    1.8908   20.6234 O   0  0  0  0  0  0  0  0  0  0  0  0
    5.2540    0.9760   19.6814 C   0  0  0  0  0  0  0  0  0  0  0  0
    4.6250    0.7669   18.4880 N   0  0  0  0  0  0  0  0  0  0  0  0
    5.1132   -0.1120   17.5735 C   0  0  0  0  0  0  0  0  0  0  0  0
    6.2830   -0.8257   17.8325 C   0  0  0  0  0  0  0  0  0  0  0  0
    6.9517   -0.6239   19.0358 C   0  0  0  0  0  0  0  0  0  0  0  0
    6.4333    0.2717   19.9734 C   0  0  0  0  0  0  0  0  0  0  0  0
    7.1208    0.4731   21.2101 N   0  0  0  0  0  0  0  0  0  0  0  0
    8.5083    0.1616   21.3588 C   0  0  0  0  0  0  0  0  0  0  0  0
    9.1776   -0.2547   20.3756 O   0  0  0  0  0  0  0  0  0  0  0  0
    9.1476    0.3559   22.6188 N   0  0  0  0  0  0  0  0  0  0  0  0
   10.5409    0.0993   22.7484 C   0  0  0  0  0  0  0  0  0  0  0  0
   11.1556   -0.8545   21.9291 C   0  0  0  0  0  0  0  0  0  0  0  0
   12.5333   -1.0602   22.0164 C   0  0  0  0  0  0  0  0  0  0  0  0
   13.2957   -0.3039   22.9112 C   0  0  0  0  0  0  0  0  0  0  0  0
   12.6821    0.6590   23.7182 C   0  0  0  0  0  0  0  0  0  0  0  0
   11.3045    0.8621   23.6365 C   0  0  0  0  0  0  0  0  0  0  0  0
  1  2  1  0
  2  3  1  0
  3  4  2  0
  4  5  1  0
  5  6  2  0
  6  7  1  0
  7  8  2  0
  8  9  1  0
  8  3  1  0
  9 10  1  0
 10 11  2  0
 10 12  1  0
 12 13  1  0
 13 14  2  0
 14 15  1  0
 15 16  2  0
 16 17  1  0
 17 18  2  0
 18 13  1  0
M  END
>  <original SMILES>  (46) 
COc1ncccc1NC(=O)Nc1ccccc1

>  <ref_pdb>  (46) 
Mpro-x0305_TDFS.pdb

>  <ref_mols>  (46) 
x0874,x1093,x0678,x0434

>  <N_hits>  (46) 
4

>  <Score_1>  (46) 
19.3695

>  <Score_2>  (46) 
0.5534

>  <Score_3>  (46) 
0.0286

>  <FeatStein>  (46) 
0.5212

$$$$
Test_46
     RDKit          3D

 18 19  0  0  0  0  0  0  0  0999 V2000
    6.2402   -2.6521   21.8464 C   0  0  0  0  0  0  0  0  0  0  0  0
    5.3940   -1.8027   21.0777 O   0  0  0  0  0  0  0  0  0  0  0  0
    5.8526   -1.0559   19.9855 C   0  0  0  0  0  0  0  0  0  0  0  0
    5.2388   -1.2187   18.7834 N   0  0  0  0  0  0  0  0  0  0  0  0
    5.6072   -0.5030   17.6890 C   0  0  0  0  0  0  0  0  0  0  0  0
    6.6511    0.4180   17.7680 C   0  0  0  0  0  0  0  0  0  0  0  0
    7.3076    0.6009   18.9818 C   0  0  0  0  0  0  0  0  0  0  0  0
    6.9205   -0.1421   20.0989 C   0  0  0  0  0  0  0  0  0  0  0  0
    7.6355    0.0299   21.3218 N   0  0  0  0  0  0  0  0  0  0  0  0
    9.0462   -0.1598   21.4212 C   0  0  0  0  0  0  0  0  0  0  0  0
    9.7305   -0.4061   20.3928 O   0  0  0  0  0  0  0  0  0  0  0  0
    9.6866   -0.0326   22.6876 N   0  0  0  0  0  0  0  0  0  0  0  0
   11.1019   -0.1525   22.7748 C   0  0  0  0  0  0  0  0  0  0  0  0
   11.7825   -1.0297   21.9230 C   0  0  0  0  0  0  0  0  0  0  0  0
   13.1759   -1.0977   21.9654 C   0  0  0  0  0  0  0  0  0  0  0  0
   13.8872   -0.2796   22.8481 C   0  0  0  0  0  0  0  0  0  0  0  0
   13.2064    0.6073   23.6876 C   0  0  0  0  0  0  0  0  0  0  0  0
   11.8135    0.6726   23.6506 C   0  0  0  0  0  0  0  0  0  0  0  0
  1  2  1  0
  2  3  1  0
  3  4  2  0
  4  5  1  0
  5  6  2  0
  6  7  1  0
  7  8  2  0
  8  9  1  0
  8  3  1  0
  9 10  1  0
 10 11  2  0
 10 12  1  0
 12 13  1  0
 13 14  2  0
 14 15  1  0
 15 16  2  0
 16 17  1  0
 17 18  2  0
 18 13  1  0
M  END
>  <original SMILES>  (47) 
COc1ncccc1NC(=O)Nc1ccccc1

>  <ref_pdb>  (47) 
Mpro-x0305_TDFS.pdb

>  <ref_mols>  (47) 
x1093,x0678,x0874

>  <N_hits>  (47) 
3

>  <Score_1>  (47) 
19.9762

>  <Score_2>  (47) 
0.2283

>  <Score_3>  (47) 
0.0114

>  <FeatStein>  (47) 
0.4690

$$$$
Test_47
     RDKit          3D

 18 19  0  0  0  0  0  0  0  0999 V2000
    6.4691   -2.6732   21.7263 C   0  0  0  0  0  0  0  0  0  0  0  0
    5.5360   -1.8241   21.0652 O   0  0  0  0  0  0  0  0  0  0  0  0
    5.8733   -1.0377   19.9568 C   0  0  0  0  0  0  0  0  0  0  0  0
    5.2218   -1.2551   18.7835 N   0  0  0  0  0  0  0  0  0  0  0  0
    5.4721   -0.5078   17.6769 C   0  0  0  0  0  0  0  0  0  0  0  0
    6.4299    0.5048   17.7122 C   0  0  0  0  0  0  0  0  0  0  0  0
    7.1226    0.7462   18.8953 C   0  0  0  0  0  0  0  0  0  0  0  0
    6.8573   -0.0300   20.0254 C   0  0  0  0  0  0  0  0  0  0  0  0
    7.6095    0.2059   21.2148 N   0  0  0  0  0  0  0  0  0  0  0  0
    9.0089   -0.0578   21.3049 C   0  0  0  0  0  0  0  0  0  0  0  0
    9.6535   -0.4335   20.2901 O   0  0  0  0  0  0  0  0  0  0  0  0
    9.6851    0.1418   22.5430 N   0  0  0  0  0  0  0  0  0  0  0  0
   11.0928   -0.0539   22.6146 C   0  0  0  0  0  0  0  0  0  0  0  0
   11.6849   -1.1244   21.9350 C   0  0  0  0  0  0  0  0  0  0  0  0
   13.0722   -1.2765   21.9531 C   0  0  0  0  0  0  0  0  0  0  0  0
   13.8660   -0.3515   22.6376 C   0  0  0  0  0  0  0  0  0  0  0  0
   13.2738    0.7261   23.3031 C   0  0  0  0  0  0  0  0  0  0  0  0
   11.8871    0.8766   23.2910 C   0  0  0  0  0  0  0  0  0  0  0  0
  1  2  1  0
  2  3  1  0
  3  4  2  0
  4  5  1  0
  5  6  2  0
  6  7  1  0
  7  8  2  0
  8  9  1  0
  8  3  1  0
  9 10  1  0
 10 11  2  0
 10 12  1  0
 12 13  1  0
 13 14  2  0
 14 15  1  0
 15 16  2  0
 16 17  1  0
 17 18  2  0
 18 13  1  0
M  END
>  <original SMILES>  (48) 
COc1ncccc1NC(=O)Nc1ccccc1

>  <ref_pdb>  (48) 
Mpro-x0305_TDFS.pdb

>  <ref_mols>  (48) 
x1093,x0678,x0874

>  <N_hits>  (48) 
3

>  <Score_1>  (48) 
19.5387

>  <Score_2>  (48) 
0.2233

>  <Score_3>  (48) 
0.0114

>  <FeatStein>  (48) 
0.4263

$$$$
Test_48
     RDKit          3D

 18 19  0  0  0  0  0  0  0  0999 V2000
    6.4588   -2.8239   21.8762 C   0  0  0  0  0  0  0  0  0  0  0  0
    5.5306   -1.9862   21.1941 O   0  0  0  0  0  0  0  0  0  0  0  0
    5.8777   -1.2130   20.0794 C   0  0  0  0  0  0  0  0  0  0  0  0
    5.2167   -1.4248   18.9105 N   0  0  0  0  0  0  0  0  0  0  0  0
    5.4760   -0.6891   17.7982 C   0  0  0  0  0  0  0  0  0  0  0  0
    6.4534    0.3051   17.8231 C   0  0  0  0  0  0  0  0  0  0  0  0
    7.1561    0.5400   19.0015 C   0  0  0  0  0  0  0  0  0  0  0  0
    6.8813   -0.2241   20.1374 C   0  0  0  0  0  0  0  0  0  0  0  0
    7.6435    0.0042   21.3219 N   0  0  0  0  0  0  0  0  0  0  0  0
    9.0602   -0.1599   21.3686 C   0  0  0  0  0  0  0  0  0  0  0  0
    9.7051   -0.4336   20.3218 O   0  0  0  0  0  0  0  0  0  0  0  0
    9.7505    0.0242   22.6013 N   0  0  0  0  0  0  0  0  0  0  0  0
   11.1700   -0.0706   22.6329 C   0  0  0  0  0  0  0  0  0  0  0  0
   11.9084    0.7767   23.4666 C   0  0  0  0  0  0  0  0  0  0  0  0
   13.2951    0.6381   23.5450 C   0  0  0  0  0  0  0  0  0  0  0  0
   13.9395   -0.3552   22.8018 C   0  0  0  0  0  0  0  0  0  0  0  0
   13.1984   -1.2110   21.9812 C   0  0  0  0  0  0  0  0  0  0  0  0
   11.8131   -1.0704   21.8972 C   0  0  0  0  0  0  0  0  0  0  0  0
  1  2  1  0
  2  3  1  0
  3  4  2  0
  4  5  1  0
  5  6  2  0
  6  7  1  0
  7  8  2  0
  8  9  1  0
  8  3  1  0
  9 10  1  0
 10 11  2  0
 10 12  1  0
 12 13  1  0
 13 14  2  0
 14 15  1  0
 15 16  2  0
 16 17  1  0
 17 18  2  0
 18 13  1  0
M  END
>  <original SMILES>  (49) 
COc1ncccc1NC(=O)Nc1ccccc1

>  <ref_pdb>  (49) 
Mpro-x0305_TDFS.pdb

>  <ref_mols>  (49) 
x1093,x0678,x0874

>  <N_hits>  (49) 
3

>  <Score_1>  (49) 
19.6092

>  <Score_2>  (49) 
0.2241

>  <Score_3>  (49) 
0.0114

>  <FeatStein>  (49) 
0.4372

$$$$
Test_49
     RDKit          3D

 18 19  0  0  0  0  0  0  0  0999 V2000
    3.9995    2.8094   20.9722 C   0  0  0  0  0  0  0  0  0  0  0  0
    5.0857    1.9034   21.1216 O   0  0  0  0  0  0  0  0  0  0  0  0
    5.5056    1.0469   20.0980 C   0  0  0  0  0  0  0  0  0  0  0  0
    4.7692    0.9133   18.9625 N   0  0  0  0  0  0  0  0  0  0  0  0
    5.1574    0.0963   17.9504 C   0  0  0  0  0  0  0  0  0  0  0  0
    6.3426   -0.6338   18.0517 C   0  0  0  0  0  0  0  0  0  0  0  0
    7.1246   -0.5079   19.1976 C   0  0  0  0  0  0  0  0  0  0  0  0
    6.7031    0.3278   20.2352 C   0  0  0  0  0  0  0  0  0  0  0  0
    7.5045    0.4527   21.4114 N   0  0  0  0  0  0  0  0  0  0  0  0
    8.8925    0.1099   21.4157 C   0  0  0  0  0  0  0  0  0  0  0  0
    9.4594   -0.2679   20.3556 O   0  0  0  0  0  0  0  0  0  0  0  0
    9.6486    0.2294   22.6190 N   0  0  0  0  0  0  0  0  0  0  0  0
   11.0418   -0.0582   22.6068 C   0  0  0  0  0  0  0  0  0  0  0  0
   11.5388   -1.0744   21.7829 C   0  0  0  0  0  0  0  0  0  0  0  0
   12.9127   -1.3133   21.7273 C   0  0  0  0  0  0  0  0  0  0  0  0
   13.7879   -0.5283   22.4833 C   0  0  0  0  0  0  0  0  0  0  0  0
   13.2906    0.4963   23.2945 C   0  0  0  0  0  0  0  0  0  0  0  0
   11.9174    0.7329   23.3558 C   0  0  0  0  0  0  0  0  0  0  0  0
  1  2  1  0
  2  3  1  0
  3  4  2  0
  4  5  1  0
  5  6  2  0
  6  7  1  0
  7  8  2  0
  8  9  1  0
  8  3  1  0
  9 10  1  0
 10 11  2  0
 10 12  1  0
 12 13  1  0
 13 14  2  0
 14 15  1  0
 15 16  2  0
 16 17  1  0
 17 18  2  0
 18 13  1  0
M  END
>  <original SMILES>  (50) 
COc1ncccc1NC(=O)Nc1ccccc1

>  <ref_pdb>  (50) 
Mpro-x0305_TDFS.pdb

>  <ref_mols>  (50) 
x1093,x0874,x0678,x0434

>  <N_hits>  (50) 
4

>  <Score_1>  (50) 
20.6001

>  <Score_2>  (50) 
0.2354

>  <Score_3>  (50) 
0.0114

>  <FeatStein>  (50) 
0.4746

$$$$
Test_50
     RDKit          3D

 26 28  0  0  0  0  0  0  0  0999 V2000
   12.5942    7.5066   25.9063 C   0  0  0  0  0  0  0  0  0  0  0  0
   12.0060    6.5257   24.9452 C   0  0  0  0  0  0  0  0  0  0  0  0
   10.9225    6.8042   24.3643 O   0  0  0  0  0  0  0  0  0  0  0  0
   12.7233    5.3245   24.6221 N   0  0  0  0  0  0  0  0  0  0  0  0
   12.1739    4.2364   23.8588 C   0  0  0  0  0  0  0  0  0  0  0  0
   10.8505    4.2692   23.3840 C   0  0  0  0  0  0  0  0  0  0  0  0
   10.3337    3.1869   22.6717 C   0  0  0  0  0  0  0  0  0  0  0  0
   11.1329    2.0670   22.4276 C   0  0  0  0  0  0  0  0  0  0  0  0
   10.5821    0.9341   21.7663 N   0  0  0  0  0  0  0  0  0  0  0  0
    9.3115    1.0401   21.1323 C   0  0  0  0  0  0  0  0  0  0  0  0
    8.6807    2.1293   21.1697 O   0  0  0  0  0  0  0  0  0  0  0  0
    8.7499   -0.0973   20.4817 N   0  0  0  0  0  0  0  0  0  0  0  0
    7.5272   -0.0375   19.7509 C   0  0  0  0  0  0  0  0  0  0  0  0
    7.5031    0.7311   18.5791 C   0  0  0  0  0  0  0  0  0  0  0  0
    6.3466    0.7961   17.8089 C   0  0  0  0  0  0  0  0  0  0  0  0
    5.2278    0.0731   18.2059 C   0  0  0  0  0  0  0  0  0  0  0  0
    5.2506   -0.6370   19.3583 N   0  0  0  0  0  0  0  0  0  0  0  0
    6.3353   -0.6951   20.1786 C   0  0  0  0  0  0  0  0  0  0  0  0
    6.1110   -1.2475   21.5147 N   0  0  0  0  0  0  0  0  0  0  0  0
    6.3195   -0.3171   22.6433 C   0  0  0  0  0  0  0  0  0  0  0  0
    5.8908   -0.9977   23.9543 C   0  0  0  0  0  0  0  0  0  0  0  0
    6.6207   -2.1952   24.1566 O   0  0  0  0  0  0  0  0  0  0  0  0
    6.3598   -3.1094   23.1058 C   0  0  0  0  0  0  0  0  0  0  0  0
    6.8007   -2.5272   21.7513 C   0  0  0  0  0  0  0  0  0  0  0  0
   12.4384    2.0137   22.9198 C   0  0  0  0  0  0  0  0  0  0  0  0
   12.9555    3.0929   23.6349 C   0  0  0  0  0  0  0  0  0  0  0  0
  1  2  1  0
  2  3  2  0
  2  4  1  0
  4  5  1  0
  5  6  2  0
  6  7  1  0
  7  8  2  0
  8  9  1  0
  8 25  1  0
  9 10  1  0
 10 11  2  0
 10 12  1  0
 12 13  1  0
 13 14  2  0
 14 15  1  0
 15 16  2  0
 16 17  1  0
 17 18  2  0
 18 19  1  0
 18 13  1  0
 19 20  1  0
 20 21  1  0
 21 22  1  0
 22 23  1  0
 23 24  1  0
 24 19  1  0
 25 26  2  0
 26  5  1  0
M  END
>  <original SMILES>  (51) 
CC(=O)Nc1ccc(NC(=O)Nc2cccnc2N2CCOCC2)cc1

>  <ref_pdb>  (51) 
Mpro-x0305_TDFS.pdb

>  <ref_mols>  (51) 
x1093,x0107,x0946

>  <N_hits>  (51) 
3

>  <Score_1>  (51) 
21.4207

>  <Score_2>  (51) 
0.6120

>  <Score_3>  (51) 
0.0286

>  <FeatStein>  (51) 
0.3455

$$$$
Test_51
     RDKit          3D

 18 19  0  0  0  0  0  0  0  0999 V2000
   14.0155   -1.7268   20.3475 C   0  0  0  0  0  0  0  0  0  0  0  0
   13.1778   -1.8891   21.4875 O   0  0  0  0  0  0  0  0  0  0  0  0
   12.6109   -0.8292   22.2109 C   0  0  0  0  0  0  0  0  0  0  0  0
   13.4467   -0.0581   23.0271 C   0  0  0  0  0  0  0  0  0  0  0  0
   12.9323    1.0127   23.7629 C   0  0  0  0  0  0  0  0  0  0  0  0
   11.5746    1.3175   23.6948 C   0  0  0  0  0  0  0  0  0  0  0  0
   10.7301    0.5490   22.8913 C   0  0  0  0  0  0  0  0  0  0  0  0
    9.3577    0.9051   22.7719 N   0  0  0  0  0  0  0  0  0  0  0  0
    8.7097    0.8063   21.5050 C   0  0  0  0  0  0  0  0  0  0  0  0
    9.3519    0.3884   20.5046 O   0  0  0  0  0  0  0  0  0  0  0  0
    7.3478    1.2194   21.3697 N   0  0  0  0  0  0  0  0  0  0  0  0
    6.6549    1.1267   20.1244 C   0  0  0  0  0  0  0  0  0  0  0  0
    5.3711    1.6623   20.0016 C   0  0  0  0  0  0  0  0  0  0  0  0
    4.7010    1.5713   18.7838 C   0  0  0  0  0  0  0  0  0  0  0  0
    5.3171    0.9233   17.7111 C   0  0  0  0  0  0  0  0  0  0  0  0
    6.5624    0.3961   17.8511 N   0  0  0  0  0  0  0  0  0  0  0  0
    7.2414    0.4895   19.0239 C   0  0  0  0  0  0  0  0  0  0  0  0
   11.2425   -0.5149   22.1413 C   0  0  0  0  0  0  0  0  0  0  0  0
  1  2  1  0
  2  3  1  0
  3  4  2  0
  4  5  1  0
  5  6  2  0
  6  7  1  0
  7  8  1  0
  7 18  2  0
  8  9  1  0
  9 10  2  0
  9 11  1  0
 11 12  1  0
 12 13  2  0
 13 14  1  0
 14 15  2  0
 15 16  1  0
 16 17  2  0
 17 12  1  0
 18  3  1  0
M  END
>  <original SMILES>  (52) 
COc1cccc(NC(=O)Nc2cccnc2)c1

>  <ref_pdb>  (52) 
Mpro-x0305_TDFS.pdb

>  <ref_mols>  (52) 
x0434,x0107,x1249,x0104,x1093

>  <N_hits>  (52) 
5

>  <Score_1>  (52) 
18.6140

>  <Score_2>  (52) 
0.6382

>  <Score_3>  (52) 
0.0343

>  <FeatStein>  (52) 
0.5968

$$$$
Test_52
     RDKit          3D

 18 19  0  0  0  0  0  0  0  0999 V2000
   14.0736   -1.7015   20.3462 C   0  0  0  0  0  0  0  0  0  0  0  0
   13.1673   -1.8788   21.4300 O   0  0  0  0  0  0  0  0  0  0  0  0
   12.6079   -0.8295   22.1744 C   0  0  0  0  0  0  0  0  0  0  0  0
   13.4481   -0.0843   23.0099 C   0  0  0  0  0  0  0  0  0  0  0  0
   12.9413    0.9752   23.7670 C   0  0  0  0  0  0  0  0  0  0  0  0
   11.5869    1.2944   23.7009 C   0  0  0  0  0  0  0  0  0  0  0  0
   10.7379    0.5516   22.8781 C   0  0  0  0  0  0  0  0  0  0  0  0
    9.3694    0.9234   22.7619 N   0  0  0  0  0  0  0  0  0  0  0  0
    8.7123    0.8146   21.5004 C   0  0  0  0  0  0  0  0  0  0  0  0
    9.3429    0.3741   20.5024 O   0  0  0  0  0  0  0  0  0  0  0  0
    7.3549    1.2429   21.3674 N   0  0  0  0  0  0  0  0  0  0  0  0
    6.6532    1.1411   20.1278 C   0  0  0  0  0  0  0  0  0  0  0  0
    5.3638    1.6650   20.0138 C   0  0  0  0  0  0  0  0  0  0  0  0
    4.6850    1.5652   18.8015 C   0  0  0  0  0  0  0  0  0  0  0  0
    5.2984    0.9198   17.7256 C   0  0  0  0  0  0  0  0  0  0  0  0
    6.5493    0.4040   17.8571 N   0  0  0  0  0  0  0  0  0  0  0  0
    7.2366    0.5063   19.0244 C   0  0  0  0  0  0  0  0  0  0  0  0
   11.2429   -0.5006   22.1070 C   0  0  0  0  0  0  0  0  0  0  0  0
  1  2  1  0
  2  3  1  0
  3  4  2  0
  4  5  1  0
  5  6  2  0
  6  7  1  0
  7  8  1  0
  7 18  2  0
  8  9  1  0
  9 10  2  0
  9 11  1  0
 11 12  1  0
 12 13  2  0
 13 14  1  0
 14 15  2  0
 15 16  1  0
 16 17  2  0
 17 12  1  0
 18  3  1  0
M  END
>  <original SMILES>  (53) 
COc1cccc(NC(=O)Nc2cccnc2)c1

>  <ref_pdb>  (53) 
Mpro-x0305_TDFS.pdb

>  <ref_mols>  (53) 
x0434,x0107,x1249,x0104,x1093

>  <N_hits>  (53) 
5

>  <Score_1>  (53) 
18.5198

>  <Score_2>  (53) 
0.6350

>  <Score_3>  (53) 
0.0343

>  <FeatStein>  (53) 
0.5956

$$$$
Test_53
     RDKit          3D

 18 19  0  0  0  0  0  0  0  0999 V2000
   14.0657   -1.6756   20.3354 C   0  0  0  0  0  0  0  0  0  0  0  0
   13.1804   -1.8771   21.4323 O   0  0  0  0  0  0  0  0  0  0  0  0
   12.6016   -0.8430   22.1830 C   0  0  0  0  0  0  0  0  0  0  0  0
   13.4274   -0.0890   23.0250 C   0  0  0  0  0  0  0  0  0  0  0  0
   12.9009    0.9562   23.7887 C   0  0  0  0  0  0  0  0  0  0  0  0
   11.5411    1.2519   23.7228 C   0  0  0  0  0  0  0  0  0  0  0  0
   10.7065    0.5000   22.8935 C   0  0  0  0  0  0  0  0  0  0  0  0
    9.3319    0.8484   22.7778 N   0  0  0  0  0  0  0  0  0  0  0  0
    8.6869    0.7674   21.5080 C   0  0  0  0  0  0  0  0  0  0  0  0
    9.3338    0.3718   20.5018 O   0  0  0  0  0  0  0  0  0  0  0  0
    7.3223    1.1731   21.3774 N   0  0  0  0  0  0  0  0  0  0  0  0
    6.6323    1.0975   20.1293 C   0  0  0  0  0  0  0  0  0  0  0  0
    5.3551    1.6486   20.0066 C   0  0  0  0  0  0  0  0  0  0  0  0
    4.6878    1.5742   18.7861 C   0  0  0  0  0  0  0  0  0  0  0  0
    5.2999    0.9270   17.7105 C   0  0  0  0  0  0  0  0  0  0  0  0
    6.5387    0.3847   17.8505 N   0  0  0  0  0  0  0  0  0  0  0  0
    7.2150    0.4617   19.0261 C   0  0  0  0  0  0  0  0  0  0  0  0
   11.2310   -0.5378   22.1159 C   0  0  0  0  0  0  0  0  0  0  0  0
  1  2  1  0
  2  3  1  0
  3  4  2  0
  4  5  1  0
  5  6  2  0
  6  7  1  0
  7  8  1  0
  7 18  2  0
  8  9  1  0
  9 10  2  0
  9 11  1  0
 11 12  1  0
 12 13  2  0
 13 14  1  0
 14 15  2  0
 15 16  1  0
 16 17  2  0
 17 12  1  0
 18  3  1  0
M  END
>  <original SMILES>  (54) 
COc1cccc(NC(=O)Nc2cccnc2)c1

>  <ref_pdb>  (54) 
Mpro-x0305_TDFS.pdb

>  <ref_mols>  (54) 
x0434,x0107,x1249,x0104,x1093

>  <N_hits>  (54) 
5

>  <Score_1>  (54) 
18.7688

>  <Score_2>  (54) 
0.6435

>  <Score_3>  (54) 
0.0343

>  <FeatStein>  (54) 
0.6087

$$$$
Test_54
     RDKit          3D

 18 19  0  0  0  0  0  0  0  0999 V2000
   14.0143   -1.7306   20.3350 C   0  0  0  0  0  0  0  0  0  0  0  0
   13.1908   -1.8805   21.4870 O   0  0  0  0  0  0  0  0  0  0  0  0
   12.6227   -0.8136   22.1990 C   0  0  0  0  0  0  0  0  0  0  0  0
   13.4434   -0.0800   23.0643 C   0  0  0  0  0  0  0  0  0  0  0  0
   12.9254    0.9868   23.8029 C   0  0  0  0  0  0  0  0  0  0  0  0
   11.5798    1.3296   23.6804 C   0  0  0  0  0  0  0  0  0  0  0  0
   10.7560    0.6125   22.8079 C   0  0  0  0  0  0  0  0  0  0  0  0
    9.3692    0.9198   22.7270 N   0  0  0  0  0  0  0  0  0  0  0  0
    8.6969    0.8271   21.4724 C   0  0  0  0  0  0  0  0  0  0  0  0
    9.3304    0.4542   20.4491 O   0  0  0  0  0  0  0  0  0  0  0  0
    7.3187    1.1948   21.3762 N   0  0  0  0  0  0  0  0  0  0  0  0
    6.6008    1.1023   20.1452 C   0  0  0  0  0  0  0  0  0  0  0  0
    5.3007    1.6048   20.0591 C   0  0  0  0  0  0  0  0  0  0  0  0
    4.6062    1.5142   18.8549 C   0  0  0  0  0  0  0  0  0  0  0  0
    5.2152    0.8995   17.7588 C   0  0  0  0  0  0  0  0  0  0  0  0
    6.4770    0.4040   17.8632 N   0  0  0  0  0  0  0  0  0  0  0  0
    7.1792    0.4980   19.0221 C   0  0  0  0  0  0  0  0  0  0  0  0
   11.2686   -0.4606   22.0744 C   0  0  0  0  0  0  0  0  0  0  0  0
  1  2  1  0
  2  3  1  0
  3  4  2  0
  4  5  1  0
  5  6  2  0
  6  7  1  0
  7  8  1  0
  7 18  2  0
  8  9  1  0
  9 10  2  0
  9 11  1  0
 11 12  1  0
 12 13  2  0
 13 14  1  0
 14 15  2  0
 15 16  1  0
 16 17  2  0
 17 12  1  0
 18  3  1  0
M  END
>  <original SMILES>  (55) 
COc1cccc(NC(=O)Nc2cccnc2)c1

>  <ref_pdb>  (55) 
Mpro-x0305_TDFS.pdb

>  <ref_mols>  (55) 
x0434,x0426,x0104,x1249,x1093

>  <N_hits>  (55) 
5

>  <Score_1>  (55) 
18.5508

>  <Score_2>  (55) 
0.6360

>  <Score_3>  (55) 
0.0343

>  <FeatStein>  (55) 
0.5978

$$$$
Test_55
     RDKit          3D

 18 19  0  0  0  0  0  0  0  0999 V2000
   14.0128   -1.7419   20.3559 C   0  0  0  0  0  0  0  0  0  0  0  0
   13.1736   -1.8893   21.4967 O   0  0  0  0  0  0  0  0  0  0  0  0
   12.6070   -0.8203   22.2069 C   0  0  0  0  0  0  0  0  0  0  0  0
   13.4302   -0.0826   23.0662 C   0  0  0  0  0  0  0  0  0  0  0  0
   12.9139    0.9863   23.8028 C   0  0  0  0  0  0  0  0  0  0  0  0
   11.5675    1.3273   23.6843 C   0  0  0  0  0  0  0  0  0  0  0  0
   10.7411    0.6060   22.8176 C   0  0  0  0  0  0  0  0  0  0  0  0
    9.3537    0.9115   22.7408 N   0  0  0  0  0  0  0  0  0  0  0  0
    8.6771    0.8153   21.4888 C   0  0  0  0  0  0  0  0  0  0  0  0
    9.3076    0.4409   20.4641 O   0  0  0  0  0  0  0  0  0  0  0  0
    7.2982    1.1811   21.3966 N   0  0  0  0  0  0  0  0  0  0  0  0
    6.5762    1.0851   20.1683 C   0  0  0  0  0  0  0  0  0  0  0  0
    5.2461    1.5067   20.1089 C   0  0  0  0  0  0  0  0  0  0  0  0
    4.5475    1.4132   18.9073 C   0  0  0  0  0  0  0  0  0  0  0  0
    5.1840    0.8759   17.7863 C   0  0  0  0  0  0  0  0  0  0  0  0
    6.4754    0.4583   17.8645 N   0  0  0  0  0  0  0  0  0  0  0  0
    7.1811    0.5572   19.0210 C   0  0  0  0  0  0  0  0  0  0  0  0
   11.2521   -0.4693   22.0862 C   0  0  0  0  0  0  0  0  0  0  0  0
  1  2  1  0
  2  3  1  0
  3  4  2  0
  4  5  1  0
  5  6  2  0
  6  7  1  0
  7  8  1  0
  7 18  2  0
  8  9  1  0
  9 10  2  0
  9 11  1  0
 11 12  1  0
 12 13  2  0
 13 14  1  0
 14 15  2  0
 15 16  1  0
 16 17  2  0
 17 12  1  0
 18  3  1  0
M  END
>  <original SMILES>  (56) 
COc1cccc(NC(=O)Nc2cccnc2)c1

>  <ref_pdb>  (56) 
Mpro-x0305_TDFS.pdb

>  <ref_mols>  (56) 
x0434,x0107,x0104,x1249,x1093

>  <N_hits>  (56) 
5

>  <Score_1>  (56) 
18.6554

>  <Score_2>  (56) 
0.6396

>  <Score_3>  (56) 
0.0343

>  <FeatStein>  (56) 
0.6039

$$$$
Test_56
     RDKit          3D

 18 19  0  0  0  0  0  0  0  0999 V2000
    2.7641    2.4959   19.0885 C   0  0  0  0  0  0  0  0  0  0  0  0
    3.8769    1.6143   18.9963 O   0  0  0  0  0  0  0  0  0  0  0  0
    4.9671    1.6782   19.8691 C   0  0  0  0  0  0  0  0  0  0  0  0
    6.0193    0.7707   19.7177 C   0  0  0  0  0  0  0  0  0  0  0  0
    7.1126    0.8397   20.5786 C   0  0  0  0  0  0  0  0  0  0  0  0
    7.1325    1.7975   21.5946 C   0  0  0  0  0  0  0  0  0  0  0  0
    8.2497    1.8708   22.4810 N   0  0  0  0  0  0  0  0  0  0  0  0
    9.4302    1.0932   22.2684 C   0  0  0  0  0  0  0  0  0  0  0  0
    9.5314    0.3514   21.2549 O   0  0  0  0  0  0  0  0  0  0  0  0
   10.5160    1.1873   23.1887 N   0  0  0  0  0  0  0  0  0  0  0  0
   11.7130    0.4586   22.9431 C   0  0  0  0  0  0  0  0  0  0  0  0
   11.6569   -0.7810   22.2960 C   0  0  0  0  0  0  0  0  0  0  0  0
   12.8375   -1.4651   22.0023 C   0  0  0  0  0  0  0  0  0  0  0  0
   14.0715   -0.9037   22.3431 C   0  0  0  0  0  0  0  0  0  0  0  0
   14.1262    0.3415   22.9766 C   0  0  0  0  0  0  0  0  0  0  0  0
   12.9472    1.0240   23.2761 C   0  0  0  0  0  0  0  0  0  0  0  0
    6.0589    2.6866   21.7202 C   0  0  0  0  0  0  0  0  0  0  0  0
    5.0129    2.6110   20.8595 N   0  0  0  0  0  0  0  0  0  0  0  0
  1  2  1  0
  2  3  1  0
  3  4  2  0
  4  5  1  0
  5  6  2  0
  6  7  1  0
  6 17  1  0
  7  8  1  0
  8  9  2  0
  8 10  1  0
 10 11  1  0
 11 12  2  0
 12 13  1  0
 13 14  2  0
 14 15  1  0
 15 16  2  0
 16 11  1  0
 17 18  2  0
 18  3  1  0
M  END
>  <original SMILES>  (57) 
COc1ccc(NC(=O)Nc2ccccc2)cn1

>  <ref_pdb>  (57) 
Mpro-x0305_TDFS.pdb

>  <ref_mols>  (57) 
x0967,x0874,x0104,x1093

>  <N_hits>  (57) 
4

>  <Score_1>  (57) 
16.0831

>  <Score_2>  (57) 
0.2757

>  <Score_3>  (57) 
0.0171

>  <FeatStein>  (57) 
0.2970

$$$$
Test_57
     RDKit          3D

 18 19  0  0  0  0  0  0  0  0999 V2000
    2.7346    2.4607   19.0918 C   0  0  0  0  0  0  0  0  0  0  0  0
    3.9019    1.6633   18.9316 O   0  0  0  0  0  0  0  0  0  0  0  0
    4.9939    1.7372   19.8013 C   0  0  0  0  0  0  0  0  0  0  0  0
    6.1178    0.9427   19.5581 C   0  0  0  0  0  0  0  0  0  0  0  0
    7.2123    1.0231   20.4165 C   0  0  0  0  0  0  0  0  0  0  0  0
    7.1634    1.8772   21.5201 C   0  0  0  0  0  0  0  0  0  0  0  0
    8.2816    1.9615   22.4042 N   0  0  0  0  0  0  0  0  0  0  0  0
    9.4454    1.1513   22.2235 C   0  0  0  0  0  0  0  0  0  0  0  0
    9.5312    0.3684   21.2399 O   0  0  0  0  0  0  0  0  0  0  0  0
   10.5328    1.2583   23.1406 N   0  0  0  0  0  0  0  0  0  0  0  0
   11.7141    0.4953   22.9251 C   0  0  0  0  0  0  0  0  0  0  0  0
   11.6318   -0.7673   22.3271 C   0  0  0  0  0  0  0  0  0  0  0  0
   12.7976   -1.4873   22.0617 C   0  0  0  0  0  0  0  0  0  0  0  0
   14.0432   -0.9392   22.3814 C   0  0  0  0  0  0  0  0  0  0  0  0
   14.1242    0.3285   22.9655 C   0  0  0  0  0  0  0  0  0  0  0  0
   12.9599    1.0471   23.2368 C   0  0  0  0  0  0  0  0  0  0  0  0
    6.0194    2.6541   21.7361 C   0  0  0  0  0  0  0  0  0  0  0  0
    4.9726    2.5713   20.8770 N   0  0  0  0  0  0  0  0  0  0  0  0
  1  2  1  0
  2  3  1  0
  3  4  2  0
  4  5  1  0
  5  6  2  0
  6  7  1  0
  6 17  1  0
  7  8  1  0
  8  9  2  0
  8 10  1  0
 10 11  1  0
 11 12  2  0
 12 13  1  0
 13 14  2  0
 14 15  1  0
 15 16  2  0
 16 11  1  0
 17 18  2  0
 18  3  1  0
M  END
>  <original SMILES>  (58) 
COc1ccc(NC(=O)Nc2ccccc2)cn1

>  <ref_pdb>  (58) 
Mpro-x0305_TDFS.pdb

>  <ref_mols>  (58) 
x0967,x0874,x1093,x0104

>  <N_hits>  (58) 
4

>  <Score_1>  (58) 
16.0652

>  <Score_2>  (58) 
0.3672

>  <Score_3>  (58) 
0.0229

>  <FeatStein>  (58) 
0.3105

$$$$
Test_58
     RDKit          3D

 18 19  0  0  0  0  0  0  0  0999 V2000
    2.8156    2.5272   19.0770 C   0  0  0  0  0  0  0  0  0  0  0  0
    3.8795    1.5834   19.0431 O   0  0  0  0  0  0  0  0  0  0  0  0
    4.9674    1.6378   19.9194 C   0  0  0  0  0  0  0  0  0  0  0  0
    5.9382    0.6335   19.8686 C   0  0  0  0  0  0  0  0  0  0  0  0
    7.0298    0.6917   20.7326 C   0  0  0  0  0  0  0  0  0  0  0  0
    7.1277    1.7377   21.6526 C   0  0  0  0  0  0  0  0  0  0  0  0
    8.2431    1.8005   22.5418 N   0  0  0  0  0  0  0  0  0  0  0  0
    9.4358    1.0485   22.3060 C   0  0  0  0  0  0  0  0  0  0  0  0
    9.5490    0.3406   21.2698 O   0  0  0  0  0  0  0  0  0  0  0  0
   10.5196    1.1305   23.2298 N   0  0  0  0  0  0  0  0  0  0  0  0
   11.7280    0.4286   22.9625 C   0  0  0  0  0  0  0  0  0  0  0  0
   11.6865   -0.8207   22.3334 C   0  0  0  0  0  0  0  0  0  0  0  0
   12.8761   -1.4791   22.0179 C   0  0  0  0  0  0  0  0  0  0  0  0
   14.1039   -0.8824   22.3188 C   0  0  0  0  0  0  0  0  0  0  0  0
   14.1434    0.3724   22.9343 C   0  0  0  0  0  0  0  0  0  0  0  0
   12.9556    1.0292   23.2557 C   0  0  0  0  0  0  0  0  0  0  0  0
    6.1339    2.7230   21.6792 C   0  0  0  0  0  0  0  0  0  0  0  0
    5.0891    2.6543   20.8167 N   0  0  0  0  0  0  0  0  0  0  0  0
  1  2  1  0
  2  3  1  0
  3  4  2  0
  4  5  1  0
  5  6  2  0
  6  7  1  0
  6 17  1  0
  7  8  1  0
  8  9  2  0
  8 10  1  0
 10 11  1  0
 11 12  2  0
 12 13  1  0
 13 14  2  0
 14 15  1  0
 15 16  2  0
 16 11  1  0
 17 18  2  0
 18  3  1  0
M  END
>  <original SMILES>  (59) 
COc1ccc(NC(=O)Nc2ccccc2)cn1

>  <ref_pdb>  (59) 
Mpro-x0305_TDFS.pdb

>  <ref_mols>  (59) 
x0967,x0874,x0104,x1093

>  <N_hits>  (59) 
4

>  <Score_1>  (59) 
16.0308

>  <Score_2>  (59) 
0.2748

>  <Score_3>  (59) 
0.0171

>  <FeatStein>  (59) 
0.2837

$$$$
Test_59
     RDKit          3D

 18 19  0  0  0  0  0  0  0  0999 V2000
    2.7833    2.5048   19.1267 C   0  0  0  0  0  0  0  0  0  0  0  0
    3.9378    1.6872   18.9768 O   0  0  0  0  0  0  0  0  0  0  0  0
    5.0175    1.7327   19.8638 C   0  0  0  0  0  0  0  0  0  0  0  0
    6.1454    0.9471   19.6101 C   0  0  0  0  0  0  0  0  0  0  0  0
    7.2277    0.9995   20.4860 C   0  0  0  0  0  0  0  0  0  0  0  0
    7.1626    1.8165   21.6166 C   0  0  0  0  0  0  0  0  0  0  0  0
    8.2682    1.8719   22.5185 N   0  0  0  0  0  0  0  0  0  0  0  0
    9.4419    1.0807   22.3185 C   0  0  0  0  0  0  0  0  0  0  0  0
    9.5479    0.3424   21.3029 O   0  0  0  0  0  0  0  0  0  0  0  0
   10.5160    1.1571   23.2540 N   0  0  0  0  0  0  0  0  0  0  0  0
   11.7072    0.4147   23.0214 C   0  0  0  0  0  0  0  0  0  0  0  0
   11.6514   -0.7957   22.3213 C   0  0  0  0  0  0  0  0  0  0  0  0
   12.8289   -1.4911   22.0419 C   0  0  0  0  0  0  0  0  0  0  0  0
   14.0599   -0.9696   22.4502 C   0  0  0  0  0  0  0  0  0  0  0  0
   14.1149    0.2470   23.1369 C   0  0  0  0  0  0  0  0  0  0  0  0
   12.9388    0.9405   23.4221 C   0  0  0  0  0  0  0  0  0  0  0  0
    6.0149    2.5853   21.8421 C   0  0  0  0  0  0  0  0  0  0  0  0
    4.9804    2.5306   20.9662 N   0  0  0  0  0  0  0  0  0  0  0  0
  1  2  1  0
  2  3  1  0
  3  4  2  0
  4  5  1  0
  5  6  2  0
  6  7  1  0
  6 17  1  0
  7  8  1  0
  8  9  2  0
  8 10  1  0
 10 11  1  0
 11 12  2  0
 12 13  1  0
 13 14  2  0
 14 15  1  0
 15 16  2  0
 16 11  1  0
 17 18  2  0
 18  3  1  0
M  END
>  <original SMILES>  (60) 
COc1ccc(NC(=O)Nc2ccccc2)cn1

>  <ref_pdb>  (60) 
Mpro-x0305_TDFS.pdb

>  <ref_mols>  (60) 
x0967,x0874,x0104,x1093

>  <N_hits>  (60) 
4

>  <Score_1>  (60) 
16.3055

>  <Score_2>  (60) 
0.2795

>  <Score_3>  (60) 
0.0171

>  <FeatStein>  (60) 
0.3074

$$$$
Test_60
     RDKit          3D

 18 19  0  0  0  0  0  0  0  0999 V2000
    2.6973    2.3772   19.1150 C   0  0  0  0  0  0  0  0  0  0  0  0
    3.9088    1.6441   18.9736 O   0  0  0  0  0  0  0  0  0  0  0  0
    4.9769    1.7048   19.8800 C   0  0  0  0  0  0  0  0  0  0  0  0
    6.1895    1.1099   19.5189 C   0  0  0  0  0  0  0  0  0  0  0  0
    7.2708    1.1635   20.3940 C   0  0  0  0  0  0  0  0  0  0  0  0
    7.1253    1.7896   21.6319 C   0  0  0  0  0  0  0  0  0  0  0  0
    8.2303    1.8452   22.5347 N   0  0  0  0  0  0  0  0  0  0  0  0
    9.4106    1.0657   22.3272 C   0  0  0  0  0  0  0  0  0  0  0  0
    9.5231    0.3384   21.3044 O   0  0  0  0  0  0  0  0  0  0  0  0
   10.4839    1.1418   23.2637 N   0  0  0  0  0  0  0  0  0  0  0  0
   11.6815    0.4122   23.0241 C   0  0  0  0  0  0  0  0  0  0  0  0
   11.6204   -0.8648   22.4548 C   0  0  0  0  0  0  0  0  0  0  0  0
   12.7995   -1.5529   22.1648 C   0  0  0  0  0  0  0  0  0  0  0  0
   14.0366   -0.9591   22.4312 C   0  0  0  0  0  0  0  0  0  0  0  0
   14.0958    0.3227   22.9867 C   0  0  0  0  0  0  0  0  0  0  0  0
   12.9184    1.0097   23.2825 C   0  0  0  0  0  0  0  0  0  0  0  0
    5.8977    2.3708   21.9667 C   0  0  0  0  0  0  0  0  0  0  0  0
    4.8592    2.3245   21.0922 N   0  0  0  0  0  0  0  0  0  0  0  0
  1  2  1  0
  2  3  1  0
  3  4  2  0
  4  5  1  0
  5  6  2  0
  6  7  1  0
  6 17  1  0
  7  8  1  0
  8  9  2  0
  8 10  1  0
 10 11  1  0
 11 12  2  0
 12 13  1  0
 13 14  2  0
 14 15  1  0
 15 16  2  0
 16 11  1  0
 17 18  2  0
 18  3  1  0
M  END
>  <original SMILES>  (61) 
COc1ccc(NC(=O)Nc2ccccc2)cn1

>  <ref_pdb>  (61) 
Mpro-x0305_TDFS.pdb

>  <ref_mols>  (61) 
x0967,x0874,x0104,x1093

>  <N_hits>  (61) 
4

>  <Score_1>  (61) 
16.2877

>  <Score_2>  (61) 
0.2792

>  <Score_3>  (61) 
0.0171

>  <FeatStein>  (61) 
0.3106

$$$$
Test_61
     RDKit          3D

 19 20  0  0  0  0  0  0  0  0999 V2000
    3.2392    2.2767   19.1749 C   0  0  0  0  0  0  0  0  0  0  0  0
    3.4272    2.9074   20.4863 N   0  0  0  0  0  0  0  0  0  0  0  0
    2.3200    3.6734   21.0719 C   0  0  0  0  0  0  0  0  0  0  0  0
    4.6894    2.7734   21.1898 C   0  0  0  0  0  0  0  0  0  0  0  0
    4.9359    3.5058   22.3676 C   0  0  0  0  0  0  0  0  0  0  0  0
    6.1495    3.3611   23.0324 C   0  0  0  0  0  0  0  0  0  0  0  0
    7.1233    2.5101   22.5154 C   0  0  0  0  0  0  0  0  0  0  0  0
    8.3709    2.3618   23.1939 N   0  0  0  0  0  0  0  0  0  0  0  0
    9.3796    1.4640   22.7249 C   0  0  0  0  0  0  0  0  0  0  0  0
    9.2067    0.8094   21.6622 O   0  0  0  0  0  0  0  0  0  0  0  0
   10.6052    1.3375   23.4434 N   0  0  0  0  0  0  0  0  0  0  0  0
   11.6315    0.4891   22.9424 C   0  0  0  0  0  0  0  0  0  0  0  0
   12.9730    0.7760   23.2186 C   0  0  0  0  0  0  0  0  0  0  0  0
   13.9736   -0.0911   22.7774 C   0  0  0  0  0  0  0  0  0  0  0  0
   13.6316   -1.2493   22.0733 C   0  0  0  0  0  0  0  0  0  0  0  0
   12.2897   -1.5418   21.8109 C   0  0  0  0  0  0  0  0  0  0  0  0
   11.2887   -0.6734   22.2459 C   0  0  0  0  0  0  0  0  0  0  0  0
    6.8581    1.7981   21.3433 C   0  0  0  0  0  0  0  0  0  0  0  0
    5.6619    1.9359   20.7157 N   0  0  0  0  0  0  0  0  0  0  0  0
  1  2  1  0
  2  3  1  0
  2  4  1  0
  4  5  2  0
  5  6  1  0
  6  7  2  0
  7  8  1  0
  7 18  1  0
  8  9  1  0
  9 10  2  0
  9 11  1  0
 11 12  1  0
 12 13  2  0
 13 14  1  0
 14 15  2  0
 15 16  1  0
 16 17  2  0
 17 12  1  0
 18 19  2  0
 19  4  1  0
M  END
>  <original SMILES>  (62) 
CN(C)c1ccc(NC(=O)Nc2ccccc2)cn1

>  <ref_pdb>  (62) 
Mpro-x0305_TDFS.pdb

>  <ref_mols>  (62) 
x0874,x0104,x0967

>  <N_hits>  (62) 
3

>  <Score_1>  (62) 
15.4507

>  <Score_2>  (62) 
0.2649

>  <Score_3>  (62) 
0.0171

>  <FeatStein>  (62) 
0.3278

$$$$
Test_62
     RDKit          3D

 19 20  0  0  0  0  0  0  0  0999 V2000
    3.2411    2.2353   19.1734 C   0  0  0  0  0  0  0  0  0  0  0  0
    3.3884    2.7614   20.5352 N   0  0  0  0  0  0  0  0  0  0  0  0
    2.2368    3.4088   21.1756 C   0  0  0  0  0  0  0  0  0  0  0  0
    4.6545    2.6414   21.2342 C   0  0  0  0  0  0  0  0  0  0  0  0
    4.8395    3.2459   22.4931 C   0  0  0  0  0  0  0  0  0  0  0  0
    6.0581    3.1161   23.1518 C   0  0  0  0  0  0  0  0  0  0  0  0
    7.0964    2.4088   22.5508 C   0  0  0  0  0  0  0  0  0  0  0  0
    8.3491    2.2764   23.2232 N   0  0  0  0  0  0  0  0  0  0  0  0
    9.3747    1.4070   22.7376 C   0  0  0  0  0  0  0  0  0  0  0  0
    9.2119    0.7649   21.6657 O   0  0  0  0  0  0  0  0  0  0  0  0
   10.6052    1.2955   23.4503 N   0  0  0  0  0  0  0  0  0  0  0  0
   11.6472    0.4763   22.9335 C   0  0  0  0  0  0  0  0  0  0  0  0
   12.9831    0.7840   23.2141 C   0  0  0  0  0  0  0  0  0  0  0  0
   13.9999   -0.0555   22.7567 C   0  0  0  0  0  0  0  0  0  0  0  0
   13.6798   -1.2071   22.0319 C   0  0  0  0  0  0  0  0  0  0  0  0
   12.3436   -1.5206   21.7649 C   0  0  0  0  0  0  0  0  0  0  0  0
   11.3263   -0.6798   22.2162 C   0  0  0  0  0  0  0  0  0  0  0  0
    6.8913    1.8224   21.2998 C   0  0  0  0  0  0  0  0  0  0  0  0
    5.6904    1.9421   20.6774 N   0  0  0  0  0  0  0  0  0  0  0  0
  1  2  1  0
  2  3  1  0
  2  4  1  0
  4  5  2  0
  5  6  1  0
  6  7  2  0
  7  8  1  0
  7 18  1  0
  8  9  1  0
  9 10  2  0
  9 11  1  0
 11 12  1  0
 12 13  2  0
 13 14  1  0
 14 15  2  0
 15 16  1  0
 16 17  2  0
 17 12  1  0
 18 19  2  0
 19  4  1  0
M  END
>  <original SMILES>  (63) 
CN(C)c1ccc(NC(=O)Nc2ccccc2)cn1

>  <ref_pdb>  (63) 
Mpro-x0305_TDFS.pdb

>  <ref_mols>  (63) 
x0967,x0874,x0104

>  <N_hits>  (63) 
3

>  <Score_1>  (63) 
15.3138

>  <Score_2>  (63) 
0.1750

>  <Score_3>  (63) 
0.0114

>  <FeatStein>  (63) 
0.3116

$$$$
Test_63
     RDKit          3D

 19 20  0  0  0  0  0  0  0  0999 V2000
    2.3671    3.3263   21.2142 C   0  0  0  0  0  0  0  0  0  0  0  0
    3.5254    2.6873   20.5794 N   0  0  0  0  0  0  0  0  0  0  0  0
    3.4014    2.2008   19.1998 C   0  0  0  0  0  0  0  0  0  0  0  0
    4.7721    2.5407   21.3077 C   0  0  0  0  0  0  0  0  0  0  0  0
    4.9937    3.2539   22.5021 C   0  0  0  0  0  0  0  0  0  0  0  0
    6.1926    3.0973   23.1905 C   0  0  0  0  0  0  0  0  0  0  0  0
    7.1766    2.2537   22.6811 C   0  0  0  0  0  0  0  0  0  0  0  0
    8.4092    2.0932   23.3838 N   0  0  0  0  0  0  0  0  0  0  0  0
    9.4443    1.2343   22.8997 C   0  0  0  0  0  0  0  0  0  0  0  0
    9.3090    0.6276   21.8036 O   0  0  0  0  0  0  0  0  0  0  0  0
   10.6536    1.0935   23.6428 N   0  0  0  0  0  0  0  0  0  0  0  0
   11.7061    0.2856   23.1295 C   0  0  0  0  0  0  0  0  0  0  0  0
   11.4100   -0.8210   22.3258 C   0  0  0  0  0  0  0  0  0  0  0  0
   12.4463   -1.5755   21.7740 C   0  0  0  0  0  0  0  0  0  0  0  0
   13.7754   -1.2156   22.0148 C   0  0  0  0  0  0  0  0  0  0  0  0
   14.0692   -0.1010   22.8063 C   0  0  0  0  0  0  0  0  0  0  0  0
   13.0349    0.6509   23.3634 C   0  0  0  0  0  0  0  0  0  0  0  0
    6.9364    1.5609   21.4922 C   0  0  0  0  0  0  0  0  0  0  0  0
    5.7540    1.7099   20.8413 N   0  0  0  0  0  0  0  0  0  0  0  0
  1  2  1  0
  2  3  1  0
  2  4  1  0
  4  5  2  0
  5  6  1  0
  6  7  2  0
  7  8  1  0
  7 18  1  0
  8  9  1  0
  9 10  2  0
  9 11  1  0
 11 12  1  0
 12 13  2  0
 13 14  1  0
 14 15  2  0
 15 16  1  0
 16 17  2  0
 17 12  1  0
 18 19  2  0
 19  4  1  0
M  END
>  <original SMILES>  (64) 
CN(C)c1ccc(NC(=O)Nc2ccccc2)cn1

>  <ref_pdb>  (64) 
Mpro-x0305_TDFS.pdb

>  <ref_mols>  (64) 
x0967,x0874,x0104

>  <N_hits>  (64) 
3

>  <Score_1>  (64) 
15.4211

>  <Score_2>  (64) 
0.1762

>  <Score_3>  (64) 
0.0114

>  <FeatStein>  (64) 
0.2715

$$$$
Test_64
     RDKit          3D

 19 20  0  0  0  0  0  0  0  0999 V2000
    2.3051    3.2459   21.2386 C   0  0  0  0  0  0  0  0  0  0  0  0
    3.4890    2.7105   20.5571 N   0  0  0  0  0  0  0  0  0  0  0  0
    3.3803    2.3173   19.1467 C   0  0  0  0  0  0  0  0  0  0  0  0
    4.7457    2.5736   21.2698 C   0  0  0  0  0  0  0  0  0  0  0  0
    4.9122    3.1437   22.5472 C   0  0  0  0  0  0  0  0  0  0  0  0
    6.1220    2.9981   23.2187 C   0  0  0  0  0  0  0  0  0  0  0  0
    7.1699    2.3093   22.6129 C   0  0  0  0  0  0  0  0  0  0  0  0
    8.4136    2.1608   23.2985 N   0  0  0  0  0  0  0  0  0  0  0  0
    9.4318    1.2760   22.8254 C   0  0  0  0  0  0  0  0  0  0  0  0
    9.2710    0.6338   21.7533 O   0  0  0  0  0  0  0  0  0  0  0  0
   10.6531    1.1487   23.5511 N   0  0  0  0  0  0  0  0  0  0  0  0
   11.6887    0.3137   23.0468 C   0  0  0  0  0  0  0  0  0  0  0  0
   11.3677   -0.8198   22.2915 C   0  0  0  0  0  0  0  0  0  0  0  0
   12.3866   -1.6029   21.7471 C   0  0  0  0  0  0  0  0  0  0  0  0
   13.7230   -1.2449   21.9467 C   0  0  0  0  0  0  0  0  0  0  0  0
   14.0416   -0.1039   22.6894 C   0  0  0  0  0  0  0  0  0  0  0  0
   13.0248    0.6767   23.2392 C   0  0  0  0  0  0  0  0  0  0  0  0
    6.9831    1.7571   21.3436 C   0  0  0  0  0  0  0  0  0  0  0  0
    5.7906    1.8917   20.7084 N   0  0  0  0  0  0  0  0  0  0  0  0
  1  2  1  0
  2  3  1  0
  2  4  1  0
  4  5  2  0
  5  6  1  0
  6  7  2  0
  7  8  1  0
  7 18  1  0
  8  9  1  0
  9 10  2  0
  9 11  1  0
 11 12  1  0
 12 13  2  0
 13 14  1  0
 14 15  2  0
 15 16  1  0
 16 17  2  0
 17 12  1  0
 18 19  2  0
 19  4  1  0
M  END
