Mpro-x2097
     RDKit          3D

  8  8  0  0  0  0  0  0  0  0999 V2000
    6.0990   -5.0950   19.7620 N   0  0  0  0  0  0  0  0  0  0  0  0
    6.8470   -4.0630   19.9410 C   0  0  0  0  0  0  0  0  0  0  0  0
    6.5710   -3.2310   21.1720 C   0  0  0  0  0  0  0  0  0  0  0  0
    5.3660   -3.3380   21.7620 N   0  0  0  0  0  0  0  0  0  0  0  0
    5.1730   -2.6150   22.8760 C   0  0  0  0  0  0  0  0  0  0  0  0
    7.5670   -2.4460   21.6170 N   0  0  0  0  0  0  0  0  0  0  0  0
    6.1270   -1.7710   23.4050 C   0  0  0  0  0  0  0  0  0  0  0  0
    7.3240   -1.7290   22.7270 C   0  0  0  0  0  0  0  0  0  0  0  0
  1  2  2  0
  2  3  1  0
  3  4  2  0
  3  6  1  0
  4  5  1  0
  6  8  2  0
  5  7  2  0
  7  8  1  0
M  END
$$$$
