Mpro-x2052
     RDKit          3D

 20 21  0  0  0  0  0  0  0  0999 V2000
    7.0280   -3.2710   21.4800 N   0  0  0  0  0  0  0  0  0  0  0  0
    5.9130   -1.4080   25.1830 C   0  0  0  0  0  0  0  0  0  0  0  0
    4.6880   -1.3320   25.1460 O   0  0  0  0  0  0  0  0  0  0  0  0
    6.6950   -2.1500   24.1370 C   0  0  0  0  0  0  0  0  0  0  0  0
    6.6700   -0.8400   26.1410 N   0  0  0  0  0  0  0  0  0  0  0  0
    5.9330   -4.6040   20.0290 O   0  0  0  0  0  0  0  0  0  0  0  0
    5.9630   -3.4260   23.6990 C   0  0  0  0  0  0  0  0  0  0  0  0
    6.4490    2.0480   28.4090 N   0  0  0  0  0  0  0  0  0  0  0  0
    5.5020    2.2020   30.5310 O   0  0  0  0  0  0  0  0  0  0  0  0
    6.7800   -4.1490   22.6310 C   0  0  0  0  0  0  0  0  0  0  0  0
    6.6120   -3.6090   20.2410 C   0  0  0  0  0  0  0  0  0  0  0  0
    6.9970   -2.6760   19.1100 C   0  0  0  0  0  0  0  0  0  0  0  0
    7.7410   -2.0400   21.8490 C   0  0  0  0  0  0  0  0  0  0  0  0
    6.9730   -1.2570   22.9190 C   0  0  0  0  0  0  0  0  0  0  0  0
    6.2310   -0.0380   27.2180 C   0  0  0  0  0  0  0  0  0  0  0  0
    5.4340   -0.5420   28.2360 C   0  0  0  0  0  0  0  0  0  0  0  0
    5.1680    0.2320   29.3510 C   0  0  0  0  0  0  0  0  0  0  0  0
    5.7210    1.5190   29.3870 C   0  0  0  0  0  0  0  0  0  0  0  0
    6.0400    3.5240   30.6430 C   0  0  0  0  0  0  0  0  0  0  0  0
    6.6900    1.2700   27.3460 C   0  0  0  0  0  0  0  0  0  0  0  0
  1 10  1  0
  1 13  1  0
  1 11  1  0
 10  7  1  0
 11  6  2  0
 11 12  1  0
 13 14  1  0
  2  3  2  0
  2  5  1  0
  4  2  1  0
  4  7  1  0
  4 14  1  0
  5 15  1  0
 15 16  1  0
 15 20  2  0
  8 18  2  0
  8 20  1  0
 18  9  1  0
 18 17  1  0
  9 19  1  0
 16 17  2  0
M  END
$$$$
