C#CC1(O)CCN(C[C@H]2[C@@H]3C[C@H]2CN3)CC1
     RDKit          3D

 16 18  0  0  0  0  0  0  0  0999 V2000
    7.3386   -6.6063   28.4325 C   0  0  0  0  0  0  0  0  0  0  0  0
    7.8401   -6.1259   27.4468 C   0  0  0  0  0  0  0  0  0  0  0  0
    8.4554   -5.5362   26.2359 C   0  0  0  0  0  0  0  0  0  0  0  0
    9.2030   -6.5313   25.5794 O   0  0  0  0  0  0  0  0  0  0  0  0
    7.3377   -5.0415   25.3077 C   0  0  0  0  0  0  0  0  0  0  0  0
    7.8635   -4.1605   24.1748 C   0  0  0  0  0  0  0  0  0  0  0  0
    8.8137   -3.1133   24.6314 N   0  0  0  0  0  0  0  0  0  0  0  0
    8.8148   -1.8023   23.9487 C   0  0  0  0  0  0  0  0  0  0  0  0
   10.2039   -1.1752   23.6816 C   0  0  1  0  0  0  0  0  0  0  0  0
   11.1007   -1.7962   22.5987 C   0  0  2  0  0  0  0  0  0  0  0  0
   11.7983   -0.4411   22.4865 C   0  0  0  0  0  0  0  0  0  0  0  0
   10.3740    0.0362   22.7542 C   0  0  1  0  0  0  0  0  0  0  0  0
    9.7264   -0.4515   21.4524 C   0  0  0  0  0  0  0  0  0  0  0  0
   10.2838   -1.8191   21.3742 N   0  0  0  0  0  0  0  0  0  0  0  0
    8.9892   -3.0148   26.0902 C   0  0  0  0  0  0  0  0  0  0  0  0
    9.4072   -4.3839   26.6536 C   0  0  0  0  0  0  0  0  0  0  0  0
  1  2  3  0
  2  3  1  0
  3  4  1  0
  3  5  1  0
  5  6  1  0
  6  7  1  0
  7  8  1  0
  7 15  1  0
  9  8  1  6
  9 10  1  0
 10 11  1  6
 12 11  1  6
 12 13  1  0
 12  9  1  0
 13 14  1  0
 14 10  1  0
 15 16  1  0
 16  3  1  0
M  END
>  <Hit>  (1) 
Mpro-x0387_0

>  <Receptor>  (1) 
Mpro-x0874_0

>  <SCORE>  (1) 
-12.415100000000001

>  <SCORE.norm>  (1) 
-0.77594099999999999

>  <SCORE.heavy>  (1) 
16

>  <OrigSmiles>  (1) 
C#CC1(O)CCN(C[C@H]2[C@@H]3C[C@H]2CN3)CC1

>  <SuCOS_Score>  (1) 
0.41339819661614302

>  <Max_SuCOS_Score>  (1) 
0

>  <Cum_SuCOS_Score>  (1) 
0

>  <TransFSScore_50nM>  (1) 
0.0057539999999999996

>  <TransFSScore_1uM>  (1) 
0.023574000000000001

>  <TransFSScore_10nM>  (1) 
0.0024380000000000001

>  <TransFSScore_200nM>  (1) 
0.102546

>  <TransFSScore>  (1) 
0.033577999999999997

>  <FeatureSteinScore>  (1) 
0.54224457111919033

>  <XCos_RefMols>  (1) 
x0072_0,x0678_0

>  <XCos_NumHits>  (1) 
2

>  <XCos_Score1>  (1) 
10.3143

>  <XCos_Score2>  (1) 
0.1748

>  <XCos_Score3>  (1) 
0.0169

$$$$
C#CC1(O)CCN(C[C@H]2[C@@H]3C[C@H]2CN3)CC1
     RDKit          3D

 16 18  0  0  0  0  0  0  0  0999 V2000
    7.1348   -6.5183   28.5836 C   0  0  0  0  0  0  0  0  0  0  0  0
    7.7333   -6.0682   27.6385 C   0  0  0  0  0  0  0  0  0  0  0  0
    8.4688   -5.5156   26.4783 C   0  0  0  0  0  0  0  0  0  0  0  0
    9.1607   -6.5630   25.8422 O   0  0  0  0  0  0  0  0  0  0  0  0
    7.4563   -4.9045   25.5001 C   0  0  0  0  0  0  0  0  0  0  0  0
    8.1245   -4.0551   24.4193 C   0  0  0  0  0  0  0  0  0  0  0  0
    9.1369   -3.1072   24.9528 N   0  0  0  0  0  0  0  0  0  0  0  0
    9.2960   -1.7899   24.3017 C   0  0  0  0  0  0  0  0  0  0  0  0
   10.7469   -1.3625   23.9757 C   0  0  1  0  0  0  0  0  0  0  0  0
   11.4381   -1.9684   22.7438 C   0  0  2  0  0  0  0  0  0  0  0  0
   12.3462   -0.7393   22.7254 C   0  0  0  0  0  0  0  0  0  0  0  0
   11.0493   -0.0809   23.1868 C   0  0  1  0  0  0  0  0  0  0  0  0
   10.2293   -0.2807   21.9062 C   0  0  0  0  0  0  0  0  0  0  0  0
   10.5372   -1.6968   21.6115 N   0  0  0  0  0  0  0  0  0  0  0  0
    9.2352   -3.0513   26.4211 C   0  0  0  0  0  0  0  0  0  0  0  0
    9.4946   -4.4626   26.9755 C   0  0  0  0  0  0  0  0  0  0  0  0
  1  2  3  0
  2  3  1  0
  3  4  1  0
  3  5  1  0
  5  6  1  0
  6  7  1  0
  7  8  1  0
  7 15  1  0
  9  8  1  6
  9 10  1  0
 10 11  1  6
 12 11  1  6
 12 13  1  0
 12  9  1  0
 13 14  1  0
 14 10  1  0
 15 16  1  0
 16  3  1  0
M  END
>  <Hit>  (2) 
Mpro-x0387_0

>  <Receptor>  (2) 
Mpro-x0305_0

>  <SCORE>  (2) 
-12.4254

>  <SCORE.norm>  (2) 
-0.77659

>  <SCORE.heavy>  (2) 
16

>  <OrigSmiles>  (2) 
C#CC1(O)CCN(C[C@H]2[C@@H]3C[C@H]2CN3)CC1

>  <SuCOS_Score>  (2) 
0.50996802594440882

>  <Max_SuCOS_Score>  (2) 
0

>  <Cum_SuCOS_Score>  (2) 
0

>  <TransFSScore_50nM>  (2) 
0.014838

>  <TransFSScore_1uM>  (2) 
0.025208000000000001

>  <TransFSScore_10nM>  (2) 
0.0061029999999999999

>  <TransFSScore_200nM>  (2) 
0.123196

>  <TransFSScore>  (2) 
0.042336249999999999

>  <FeatureSteinScore>  (2) 
0.51980513386007321

>  <XCos_RefMols>  (2) 
x0072_0,x0830_0

>  <XCos_NumHits>  (2) 
2

>  <XCos_Score1>  (2) 
10.4708

>  <XCos_Score2>  (2) 
0.2366

>  <XCos_Score3>  (2) 
0.0226

$$$$
C#CC1(O)CCN(C[C@H]2[C@@H]3C[C@H]2CN3)CC1
     RDKit          3D

 16 18  0  0  0  0  0  0  0  0999 V2000
    7.3125   -6.5872   28.3894 C   0  0  0  0  0  0  0  0  0  0  0  0
    7.8271   -6.1062   27.4107 C   0  0  0  0  0  0  0  0  0  0  0  0
    8.4595   -5.5157   26.2091 C   0  0  0  0  0  0  0  0  0  0  0  0
    9.2033   -6.5145   25.5538 O   0  0  0  0  0  0  0  0  0  0  0  0
    7.3555   -5.0047   25.2734 C   0  0  0  0  0  0  0  0  0  0  0  0
    7.9006   -4.1226   24.1505 C   0  0  0  0  0  0  0  0  0  0  0  0
    8.8568   -3.0874   24.6219 N   0  0  0  0  0  0  0  0  0  0  0  0
    8.8773   -1.7727   23.9469 C   0  0  0  0  0  0  0  0  0  0  0  0
   10.2762   -1.1790   23.6553 C   0  0  1  0  0  0  0  0  0  0  0  0
   11.1421   -1.8263   22.5629 C   0  0  2  0  0  0  0  0  0  0  0  0
   11.8687   -0.4881   22.4323 C   0  0  0  0  0  0  0  0  0  0  0  0
   10.4598    0.0231   22.7185 C   0  0  1  0  0  0  0  0  0  0  0  0
    9.7817   -0.4568   21.4293 C   0  0  0  0  0  0  0  0  0  0  0  0
   10.3066   -1.8372   21.3508 N   0  0  0  0  0  0  0  0  0  0  0  0
    9.0197   -2.9990   26.0828 C   0  0  0  0  0  0  0  0  0  0  0  0
    9.4188   -4.3754   26.6422 C   0  0  0  0  0  0  0  0  0  0  0  0
  1  2  3  0
  2  3  1  0
  3  4  1  0
  3  5  1  0
  5  6  1  0
  6  7  1  0
  7  8  1  0
  7 15  1  0
  9  8  1  6
  9 10  1  0
 10 11  1  6
 12 11  1  6
 12 13  1  0
 12  9  1  0
 13 14  1  0
 14 10  1  0
 15 16  1  0
 16  3  1  0
M  END
>  <Hit>  (3) 
Mpro-x0387_0

>  <Receptor>  (3) 
Mpro-x0874_0

>  <SCORE>  (3) 
-12.446300000000001

>  <SCORE.norm>  (3) 
-0.777891

>  <SCORE.heavy>  (3) 
16

>  <OrigSmiles>  (3) 
C#CC1(O)CCN(C[C@H]2[C@@H]3C[C@H]2CN3)CC1

>  <SuCOS_Score>  (3) 
0.42811640521334948

>  <Max_SuCOS_Score>  (3) 
0

>  <Cum_SuCOS_Score>  (3) 
0

>  <TransFSScore_50nM>  (3) 
0.0050740000000000004

>  <TransFSScore_1uM>  (3) 
0.02359

>  <TransFSScore_10nM>  (3) 
0.0024620000000000002

>  <TransFSScore_200nM>  (3) 
0.101504

>  <TransFSScore>  (3) 
0.033157499999999999

>  <FeatureSteinScore>  (3) 
0.54848878150037916

>  <XCos_RefMols>  (3) 
x0072_0,x0678_0

>  <XCos_NumHits>  (3) 
2

>  <XCos_Score1>  (3) 
10.3877

>  <XCos_Score2>  (3) 
0.1761

>  <XCos_Score3>  (3) 
0.0169

$$$$
C#CC1(O)CCN(C[C@H]2[C@@H]3C[C@H]2CN3)CC1
     RDKit          3D

 16 18  0  0  0  0  0  0  0  0999 V2000
    7.1715   -6.5372   28.5640 C   0  0  0  0  0  0  0  0  0  0  0  0
    7.7614   -6.0785   27.6176 C   0  0  0  0  0  0  0  0  0  0  0  0
    8.4861   -5.5156   26.4555 C   0  0  0  0  0  0  0  0  0  0  0  0
    9.1819   -6.5552   25.8111 O   0  0  0  0  0  0  0  0  0  0  0  0
    7.4635   -4.9079   25.4858 C   0  0  0  0  0  0  0  0  0  0  0  0
    8.1192   -4.0490   24.4048 C   0  0  0  0  0  0  0  0  0  0  0  0
    9.1278   -3.0961   24.9365 N   0  0  0  0  0  0  0  0  0  0  0  0
    9.2735   -1.7749   24.2902 C   0  0  0  0  0  0  0  0  0  0  0  0
   10.7203   -1.3304   23.9682 C   0  0  1  0  0  0  0  0  0  0  0  0
   11.4287   -1.9422   22.7491 C   0  0  2  0  0  0  0  0  0  0  0  0
   12.3188   -0.7002   22.7205 C   0  0  0  0  0  0  0  0  0  0  0  0
   11.0092   -0.0550   23.1644 C   0  0  1  0  0  0  0  0  0  0  0  0
   10.2011   -0.2837   21.8811 C   0  0  0  0  0  0  0  0  0  0  0  0
   10.5318   -1.6989   21.6073 N   0  0  0  0  0  0  0  0  0  0  0  0
    9.2342   -3.0456   26.4044 C   0  0  0  0  0  0  0  0  0  0  0  0
    9.5070   -4.4573   26.9513 C   0  0  0  0  0  0  0  0  0  0  0  0
  1  2  3  0
  2  3  1  0
  3  4  1  0
  3  5  1  0
  5  6  1  0
  6  7  1  0
  7  8  1  0
  7 15  1  0
  9  8  1  6
  9 10  1  0
 10 11  1  6
 12 11  1  6
 12 13  1  0
 12  9  1  0
 13 14  1  0
 14 10  1  0
 15 16  1  0
 16  3  1  0
M  END
>  <Hit>  (4) 
Mpro-x0387_0

>  <Receptor>  (4) 
Mpro-x0305_0

>  <SCORE>  (4) 
-12.456799999999999

>  <SCORE.norm>  (4) 
-0.77854999999999996

>  <SCORE.heavy>  (4) 
16

>  <OrigSmiles>  (4) 
C#CC1(O)CCN(C[C@H]2[C@@H]3C[C@H]2CN3)CC1

>  <SuCOS_Score>  (4) 
0.50820756332020467

>  <Max_SuCOS_Score>  (4) 
0

>  <Cum_SuCOS_Score>  (4) 
0

>  <TransFSScore_50nM>  (4) 
0.0155

>  <TransFSScore_1uM>  (4) 
0.026020000000000001

>  <TransFSScore_10nM>  (4) 
0.0055799999999999999

>  <TransFSScore_200nM>  (4) 
0.125364

>  <TransFSScore>  (4) 
0.043116000000000002

>  <FeatureSteinScore>  (4) 
0.52546680372892085

>  <XCos_RefMols>  (4) 
x0072_0,x0830_0

>  <XCos_NumHits>  (4) 
2

>  <XCos_Score1>  (4) 
10.4276

>  <XCos_Score2>  (4) 
0.1767

>  <XCos_Score3>  (4) 
0.0169

$$$$
C#CC1(O)CCN(C[C@H]2[C@@H]3C[C@H]2CN3)CC1
     RDKit          3D

 16 18  0  0  0  0  0  0  0  0999 V2000
    7.1694   -6.5204   28.5739 C   0  0  0  0  0  0  0  0  0  0  0  0
    7.7570   -6.0665   27.6238 C   0  0  0  0  0  0  0  0  0  0  0  0
    8.4788   -5.5087   26.4575 C   0  0  0  0  0  0  0  0  0  0  0  0
    9.1728   -6.5511   25.8156 O   0  0  0  0  0  0  0  0  0  0  0  0
    7.4538   -4.9049   25.4878 C   0  0  0  0  0  0  0  0  0  0  0  0
    8.1068   -4.0507   24.4015 C   0  0  0  0  0  0  0  0  0  0  0  0
    9.1168   -3.0957   24.9265 N   0  0  0  0  0  0  0  0  0  0  0  0
    9.2610   -1.7772   24.2742 C   0  0  0  0  0  0  0  0  0  0  0  0
   10.7082   -1.3256   23.9646 C   0  0  1  0  0  0  0  0  0  0  0  0
   11.4247   -1.9226   22.7428 C   0  0  2  0  0  0  0  0  0  0  0  0
   12.3115   -0.6780   22.7320 C   0  0  0  0  0  0  0  0  0  0  0  0
   10.9979   -0.0410   23.1757 C   0  0  1  0  0  0  0  0  0  0  0  0
   10.1972   -0.2583   21.8859 C   0  0  0  0  0  0  0  0  0  0  0  0
   10.5331   -1.6697   21.5990 N   0  0  0  0  0  0  0  0  0  0  0  0
    9.2270   -3.0390   26.3939 C   0  0  0  0  0  0  0  0  0  0  0  0
    9.5011   -4.4484   26.9461 C   0  0  0  0  0  0  0  0  0  0  0  0
  1  2  3  0
  2  3  1  0
  3  4  1  0
  3  5  1  0
  5  6  1  0
  6  7  1  0
  7  8  1  0
  7 15  1  0
  9  8  1  6
  9 10  1  0
 10 11  1  6
 12 11  1  6
 12 13  1  0
 12  9  1  0
 13 14  1  0
 14 10  1  0
 15 16  1  0
 16  3  1  0
M  END
>  <Hit>  (5) 
Mpro-x0387_0

>  <Receptor>  (5) 
Mpro-x0305_0

>  <SCORE>  (5) 
-12.4755

>  <SCORE.norm>  (5) 
-0.77971800000000002

>  <SCORE.heavy>  (5) 
16

>  <OrigSmiles>  (5) 
C#CC1(O)CCN(C[C@H]2[C@@H]3C[C@H]2CN3)CC1

>  <SuCOS_Score>  (5) 
0.50704244048667657

>  <Max_SuCOS_Score>  (5) 
0

>  <Cum_SuCOS_Score>  (5) 
0

>  <TransFSScore_50nM>  (5) 
0.015363

>  <TransFSScore_1uM>  (5) 
0.025975999999999999

>  <TransFSScore_10nM>  (5) 
0.0057130000000000002

>  <TransFSScore_200nM>  (5) 
0.13197999999999999

>  <TransFSScore>  (5) 
0.044757999999999999

>  <FeatureSteinScore>  (5) 
0.52873069732734435

>  <XCos_RefMols>  (5) 
x0072_0,x0830_0

>  <XCos_NumHits>  (5) 
2

>  <XCos_Score1>  (5) 
10.4583

>  <XCos_Score2>  (5) 
0.1773

>  <XCos_Score3>  (5) 
0.0169

$$$$
C#CC1(O)CCN(C[C@H]2[C@@H]3C[C@H]2CN3)CC1
     RDKit          3D

 16 18  0  0  0  0  0  0  0  0999 V2000
    7.1739   -6.5077   28.6034 C   0  0  0  0  0  0  0  0  0  0  0  0
    7.7543   -6.0653   27.6435 C   0  0  0  0  0  0  0  0  0  0  0  0
    8.4667   -5.5214   26.4649 C   0  0  0  0  0  0  0  0  0  0  0  0
    9.1443   -6.5740   25.8220 O   0  0  0  0  0  0  0  0  0  0  0  0
    7.4352   -4.9156   25.5033 C   0  0  0  0  0  0  0  0  0  0  0  0
    8.0823   -4.0744   24.4035 C   0  0  0  0  0  0  0  0  0  0  0  0
    9.1064   -3.1243   24.9099 N   0  0  0  0  0  0  0  0  0  0  0  0
    9.2538   -1.8116   24.2468 C   0  0  0  0  0  0  0  0  0  0  0  0
   10.7025   -1.3619   23.9415 C   0  0  1  0  0  0  0  0  0  0  0  0
   11.4168   -1.9491   22.7137 C   0  0  2  0  0  0  0  0  0  0  0  0
   12.3080   -0.7076   22.7153 C   0  0  0  0  0  0  0  0  0  0  0  0
   10.9967   -0.0705   23.1657 C   0  0  1  0  0  0  0  0  0  0  0  0
   10.1950   -0.2719   21.8739 C   0  0  0  0  0  0  0  0  0  0  0  0
   10.5259   -1.6814   21.5726 N   0  0  0  0  0  0  0  0  0  0  0  0
    9.2347   -3.0586   26.3754 C   0  0  0  0  0  0  0  0  0  0  0  0
    9.5036   -4.4665   26.9340 C   0  0  0  0  0  0  0  0  0  0  0  0
  1  2  3  0
  2  3  1  0
  3  4  1  0
  3  5  1  0
  5  6  1  0
  6  7  1  0
  7  8  1  0
  7 15  1  0
  9  8  1  6
  9 10  1  0
 10 11  1  6
 12 11  1  6
 12 13  1  0
 12  9  1  0
 13 14  1  0
 14 10  1  0
 15 16  1  0
 16  3  1  0
M  END
>  <Hit>  (6) 
Mpro-x0387_0

>  <Receptor>  (6) 
Mpro-x0305_0

>  <SCORE>  (6) 
-12.516999999999999

>  <SCORE.norm>  (6) 
-0.78231099999999998

>  <SCORE.heavy>  (6) 
16

>  <OrigSmiles>  (6) 
C#CC1(O)CCN(C[C@H]2[C@@H]3C[C@H]2CN3)CC1

>  <SuCOS_Score>  (6) 
0.5058338366892291

>  <Max_SuCOS_Score>  (6) 
0

>  <Cum_SuCOS_Score>  (6) 
0

>  <TransFSScore_50nM>  (6) 
0.015443

>  <TransFSScore_1uM>  (6) 
0.025783

>  <TransFSScore_10nM>  (6) 
0.0057930000000000004

>  <TransFSScore_200nM>  (6) 
0.13440099999999999

>  <TransFSScore>  (6) 
0.045354999999999999

>  <FeatureSteinScore>  (6) 
0.52480955904967685

>  <XCos_RefMols>  (6) 
x0072_0,x0830_0

>  <XCos_NumHits>  (6) 
2

>  <XCos_Score1>  (6) 
10.5035

>  <XCos_Score2>  (6) 
0.2374

>  <XCos_Score3>  (6) 
0.0226

$$$$
C#CC1(O)CCN(Cc2c[nH]cn2)CC1
     RDKit          3D

 15 16  0  0  0  0  0  0  0  0999 V2000
    7.6581   -6.3611   27.8038 C   0  0  0  0  0  0  0  0  0  0  0  0
    8.1781   -5.9960   26.7789 C   0  0  0  0  0  0  0  0  0  0  0  0
    8.8172   -5.5476   25.5209 C   0  0  0  0  0  0  0  0  0  0  0  0
    9.6303   -6.5875   25.0316 O   0  0  0  0  0  0  0  0  0  0  0  0
    7.7180   -5.2330   24.4960 C   0  0  0  0  0  0  0  0  0  0  0  0
    8.2598   -4.4964   23.2704 C   0  0  0  0  0  0  0  0  0  0  0  0
    9.1414   -3.3493   23.6136 N   0  0  0  0  0  0  0  0  0  0  0  0
    9.1094   -2.1550   22.7452 C   0  0  0  0  0  0  0  0  0  0  0  0
   10.4150   -1.4462   22.5718 C   0  0  0  0  0  0  0  0  0  0  0  0
   11.1020   -0.7399   23.5377 C   0  0  0  0  0  0  0  0  0  0  0  0
   12.2498   -0.2975   22.9931 N   0  0  0  0  0  0  0  0  0  0  0  0
   12.2462   -0.7406   21.7205 C   0  0  0  0  0  0  0  0  0  0  0  0
   11.1366   -1.4486   21.4356 N   0  0  0  0  0  0  0  0  0  0  0  0
    9.2514   -3.0445   25.0500 C   0  0  0  0  0  0  0  0  0  0  0  0
    9.7037   -4.3060   25.8096 C   0  0  0  0  0  0  0  0  0  0  0  0
  1  2  3  0
  2  3  1  0
  3  4  1  0
  3  5  1  0
  5  6  1  0
  6  7  1  0
  7  8  1  0
  7 14  1  0
  8  9  1  0
  9 10  2  0
 10 11  1  0
 11 12  1  0
 12 13  2  0
 13  9  1  0
 14 15  1  0
 15  3  1  0
M  END
>  <Hit>  (7) 
Mpro-x0387_0

>  <Receptor>  (7) 
Mpro-x0874_0

>  <SCORE>  (7) 
-10.396699999999999

>  <SCORE.norm>  (7) 
-0.69311100000000003

>  <SCORE.heavy>  (7) 
15

>  <OrigSmiles>  (7) 
C#CC1(O)CCN(Cc2c[nH]cn2)CC1

>  <SuCOS_Score>  (7) 
0.38022310593586606

>  <Max_SuCOS_Score>  (7) 
0

>  <Cum_SuCOS_Score>  (7) 
0

>  <TransFSScore_50nM>  (7) 
0.019161999999999998

>  <TransFSScore_1uM>  (7) 
0.078570000000000001

>  <TransFSScore_10nM>  (7) 
0.033755

>  <TransFSScore_200nM>  (7) 
0.161387

>  <TransFSScore>  (7) 
0.073218499999999992

>  <FeatureSteinScore>  (7) 
0.33649743526196302

>  <XCos_RefMols>  (7) 
x0708_0,x1382_0

>  <XCos_NumHits>  (7) 
2

>  <XCos_Score1>  (7) 
10.9169

>  <XCos_Score2>  (7) 
0.0617

>  <XCos_Score3>  (7) 
0.0056

$$$$
C#CC1(O)CCN(Cc2c[nH]cn2)CC1
     RDKit          3D

 15 16  0  0  0  0  0  0  0  0999 V2000
    7.6662   -6.3252   27.4930 C   0  0  0  0  0  0  0  0  0  0  0  0
    8.1779   -5.9073   26.4842 C   0  0  0  0  0  0  0  0  0  0  0  0
    8.8055   -5.3940   25.2453 C   0  0  0  0  0  0  0  0  0  0  0  0
    9.5464   -6.4327   24.6503 O   0  0  0  0  0  0  0  0  0  0  0  0
    7.6973   -4.9412   24.2839 C   0  0  0  0  0  0  0  0  0  0  0  0
    8.2444   -4.1385   23.1031 C   0  0  0  0  0  0  0  0  0  0  0  0
    9.1969   -3.0703   23.5066 N   0  0  0  0  0  0  0  0  0  0  0  0
    9.2064   -1.8105   22.7358 C   0  0  0  0  0  0  0  0  0  0  0  0
   10.5525   -1.1960   22.5176 C   0  0  0  0  0  0  0  0  0  0  0  0
   11.3428   -0.5869   23.4706 C   0  0  0  0  0  0  0  0  0  0  0  0
   12.4913   -0.2094   22.8803 N   0  0  0  0  0  0  0  0  0  0  0  0
   12.3856   -0.5949   21.5934 C   0  0  0  0  0  0  0  0  0  0  0  0
   11.2105   -1.2034   21.3435 N   0  0  0  0  0  0  0  0  0  0  0  0
    9.3633   -2.8876   24.9582 C   0  0  0  0  0  0  0  0  0  0  0  0
    9.7665   -4.2277   25.6019 C   0  0  0  0  0  0  0  0  0  0  0  0
  1  2  3  0
  2  3  1  0
  3  4  1  0
  3  5  1  0
  5  6  1  0
  6  7  1  0
  7  8  1  0
  7 14  1  0
  8  9  1  0
  9 10  2  0
 10 11  1  0
 11 12  1  0
 12 13  2  0
 13  9  1  0
 14 15  1  0
 15  3  1  0
M  END
>  <Hit>  (8) 
Mpro-x0387_0

>  <Receptor>  (8) 
Mpro-x0874_0

>  <SCORE>  (8) 
-10.575100000000001

>  <SCORE.norm>  (8) 
-0.70500399999999996

>  <SCORE.heavy>  (8) 
15

>  <OrigSmiles>  (8) 
C#CC1(O)CCN(Cc2c[nH]cn2)CC1

>  <SuCOS_Score>  (8) 
0.38360859179700979

>  <Max_SuCOS_Score>  (8) 
0

>  <Cum_SuCOS_Score>  (8) 
0

>  <TransFSScore_50nM>  (8) 
0.016504000000000001

>  <TransFSScore_1uM>  (8) 
0.068095000000000003

>  <TransFSScore_10nM>  (8) 
0.041868000000000002

>  <TransFSScore_200nM>  (8) 
0.177375

>  <TransFSScore>  (8) 
0.0759605

>  <FeatureSteinScore>  (8) 
0.32574084250633539

>  <XCos_RefMols>  (8) 
x1392_0

>  <XCos_NumHits>  (8) 
1

>  <XCos_Score1>  (8) 
10.4918

>  <XCos_Score2>  (8) 
0.0593

>  <XCos_Score3>  (8) 
0.0056

$$$$
C#CC1(O)CCN(Cc2c[nH]cn2)CC1
     RDKit          3D

 15 16  0  0  0  0  0  0  0  0999 V2000
    7.6997   -6.3189   27.5328 C   0  0  0  0  0  0  0  0  0  0  0  0
    8.2046   -5.9056   26.5187 C   0  0  0  0  0  0  0  0  0  0  0  0
    8.8240   -5.3984   25.2732 C   0  0  0  0  0  0  0  0  0  0  0  0
    9.5548   -6.4421   24.6747 O   0  0  0  0  0  0  0  0  0  0  0  0
    7.7098   -4.9428   24.3202 C   0  0  0  0  0  0  0  0  0  0  0  0
    8.2506   -4.1457   23.1326 C   0  0  0  0  0  0  0  0  0  0  0  0
    9.2116   -3.0811   23.5253 N   0  0  0  0  0  0  0  0  0  0  0  0
    9.2205   -1.8232   22.7512 C   0  0  0  0  0  0  0  0  0  0  0  0
   10.5684   -1.2210   22.5113 C   0  0  0  0  0  0  0  0  0  0  0  0
   11.3623   -0.5842   23.4429 C   0  0  0  0  0  0  0  0  0  0  0  0
   12.5112   -0.2302   22.8392 N   0  0  0  0  0  0  0  0  0  0  0  0
   12.4023   -0.6569   21.5656 C   0  0  0  0  0  0  0  0  0  0  0  0
   11.2247   -1.2690   21.3371 N   0  0  0  0  0  0  0  0  0  0  0  0
    9.3912   -2.8954   24.9749 C   0  0  0  0  0  0  0  0  0  0  0  0
    9.7935   -4.2358   25.6186 C   0  0  0  0  0  0  0  0  0  0  0  0
  1  2  3  0
  2  3  1  0
  3  4  1  0
  3  5  1  0
  5  6  1  0
  6  7  1  0
  7  8  1  0
  7 14  1  0
  8  9  1  0
  9 10  2  0
 10 11  1  0
 11 12  1  0
 12 13  2  0
 13  9  1  0
 14 15  1  0
 15  3  1  0
M  END
>  <Hit>  (9) 
Mpro-x0387_0

>  <Receptor>  (9) 
Mpro-x0874_0

>  <SCORE>  (9) 
-10.5871

>  <SCORE.norm>  (9) 
-0.70580900000000002

>  <SCORE.heavy>  (9) 
15

>  <OrigSmiles>  (9) 
C#CC1(O)CCN(Cc2c[nH]cn2)CC1

>  <SuCOS_Score>  (9) 
0.38867936377408613

>  <Max_SuCOS_Score>  (9) 
0

>  <Cum_SuCOS_Score>  (9) 
0

>  <TransFSScore_50nM>  (9) 
0.016227999999999999

>  <TransFSScore_1uM>  (9) 
0.069311999999999999

>  <TransFSScore_10nM>  (9) 
0.042978000000000002

>  <TransFSScore_200nM>  (9) 
0.17926300000000001

>  <TransFSScore>  (9) 
0.076945250000000007

>  <FeatureSteinScore>  (9) 
0.32504415723033742

>  <XCos_RefMols>  (9) 
x1392_0

>  <XCos_NumHits>  (9) 
1

>  <XCos_Score1>  (9) 
10.5783

>  <XCos_Score2>  (9) 
0.0598

>  <XCos_Score3>  (9) 
0.0056

$$$$
C#CC1(O)CCN(Cc2c[nH]cn2)CC1
     RDKit          3D

 15 16  0  0  0  0  0  0  0  0999 V2000
    7.5357   -6.4117   28.1230 C   0  0  0  0  0  0  0  0  0  0  0  0
    8.0452   -6.0438   27.0939 C   0  0  0  0  0  0  0  0  0  0  0  0
    8.6702   -5.5919   25.8301 C   0  0  0  0  0  0  0  0  0  0  0  0
    9.4430   -6.6455   25.3062 O   0  0  0  0  0  0  0  0  0  0  0  0
    7.5591   -5.2292   24.8344 C   0  0  0  0  0  0  0  0  0  0  0  0
    8.0956   -4.4871   23.6098 C   0  0  0  0  0  0  0  0  0  0  0  0
    9.0164   -3.3711   23.9529 N   0  0  0  0  0  0  0  0  0  0  0  0
    8.9999   -2.1617   23.1053 C   0  0  0  0  0  0  0  0  0  0  0  0
   10.3002   -1.4306   22.9961 C   0  0  0  0  0  0  0  0  0  0  0  0
   10.9431   -0.7410   24.0035 C   0  0  0  0  0  0  0  0  0  0  0  0
   12.1024   -0.2685   23.5110 N   0  0  0  0  0  0  0  0  0  0  0  0
   12.1491   -0.6776   22.2279 C   0  0  0  0  0  0  0  0  0  0  0  0
   11.0605   -1.3929   21.8861 N   0  0  0  0  0  0  0  0  0  0  0  0
    9.1650   -3.0942   25.3915 C   0  0  0  0  0  0  0  0  0  0  0  0
    9.5973   -4.3807   26.1202 C   0  0  0  0  0  0  0  0  0  0  0  0
  1  2  3  0
  2  3  1  0
  3  4  1  0
  3  5  1  0
  5  6  1  0
  6  7  1  0
  7  8  1  0
  7 14  1  0
  8  9  1  0
  9 10  2  0
 10 11  1  0
 11 12  1  0
 12 13  2  0
 13  9  1  0
 14 15  1  0
 15  3  1  0
M  END
>  <Hit>  (10) 
Mpro-x0387_0

>  <Receptor>  (10) 
Mpro-x1249_0

>  <SCORE>  (10) 
-10.6713

>  <SCORE.norm>  (10) 
-0.71141900000000002

>  <SCORE.heavy>  (10) 
15

>  <OrigSmiles>  (10) 
C#CC1(O)CCN(Cc2c[nH]cn2)CC1

>  <SuCOS_Score>  (10) 
0.41393127358132464

>  <Max_SuCOS_Score>  (10) 
0

>  <Cum_SuCOS_Score>  (10) 
0

>  <TransFSScore_50nM>  (10) 
0.010987

>  <TransFSScore_1uM>  (10) 
0.091316999999999995

>  <TransFSScore_10nM>  (10) 
0.025183000000000001

>  <TransFSScore_200nM>  (10) 
0.170624

>  <TransFSScore>  (10) 
0.074527750000000004

>  <FeatureSteinScore>  (10) 
0.44042061380147091

>  <XCos_RefMols>  (10) 
x0708_0,x1382_0

>  <XCos_NumHits>  (10) 
2

>  <XCos_Score1>  (10) 
10.9602

>  <XCos_Score2>  (10) 
0.2477

>  <XCos_Score3>  (10) 
0.0226

$$$$
C#CC1(O)CCN(Cc2c[nH]cn2)CC1
     RDKit          3D

 15 16  0  0  0  0  0  0  0  0999 V2000
    7.6715   -6.3094   27.5044 C   0  0  0  0  0  0  0  0  0  0  0  0
    8.1837   -5.8968   26.4937 C   0  0  0  0  0  0  0  0  0  0  0  0
    8.8131   -5.3901   25.2530 C   0  0  0  0  0  0  0  0  0  0  0  0
    9.5525   -6.4327   24.6632 O   0  0  0  0  0  0  0  0  0  0  0  0
    7.7063   -4.9396   24.2888 C   0  0  0  0  0  0  0  0  0  0  0  0
    8.2557   -4.1432   23.1048 C   0  0  0  0  0  0  0  0  0  0  0  0
    9.2097   -3.0749   23.5043 N   0  0  0  0  0  0  0  0  0  0  0  0
    9.2220   -1.8185   22.7280 C   0  0  0  0  0  0  0  0  0  0  0  0
   10.5681   -1.2018   22.5167 C   0  0  0  0  0  0  0  0  0  0  0  0
   11.3584   -0.6033   23.4764 C   0  0  0  0  0  0  0  0  0  0  0  0
   12.5071   -0.2197   22.8904 N   0  0  0  0  0  0  0  0  0  0  0  0
   12.4016   -0.5911   21.5994 C   0  0  0  0  0  0  0  0  0  0  0  0
   11.2265   -1.1967   21.3426 N   0  0  0  0  0  0  0  0  0  0  0  0
    9.3753   -2.8859   24.9552 C   0  0  0  0  0  0  0  0  0  0  0  0
    9.7758   -4.2239   25.6051 C   0  0  0  0  0  0  0  0  0  0  0  0
  1  2  3  0
  2  3  1  0
  3  4  1  0
  3  5  1  0
  5  6  1  0
  6  7  1  0
  7  8  1  0
  7 14  1  0
  8  9  1  0
  9 10  2  0
 10 11  1  0
 11 12  1  0
 12 13  2  0
 13  9  1  0
 14 15  1  0
 15  3  1  0
M  END
>  <Hit>  (11) 
Mpro-x0387_0

>  <Receptor>  (11) 
Mpro-x0874_0

>  <SCORE>  (11) 
-10.6816

>  <SCORE.norm>  (11) 
-0.71210899999999999

>  <SCORE.heavy>  (11) 
15

>  <OrigSmiles>  (11) 
C#CC1(O)CCN(Cc2c[nH]cn2)CC1

>  <SuCOS_Score>  (11) 
0.38544874194994272

>  <Max_SuCOS_Score>  (11) 
0

>  <Cum_SuCOS_Score>  (11) 
0

>  <TransFSScore_50nM>  (11) 
0.016806999999999999

>  <TransFSScore_1uM>  (11) 
0.068947999999999995

>  <TransFSScore_10nM>  (11) 
0.043052

>  <TransFSScore_200nM>  (11) 
0.18110299999999999

>  <TransFSScore>  (11) 
0.077477500000000005

>  <FeatureSteinScore>  (11) 
0.32696674239166118

>  <XCos_RefMols>  (11) 
x1392_0

>  <XCos_NumHits>  (11) 
1

>  <XCos_Score1>  (11) 
10.5410

>  <XCos_Score2>  (11) 
0.0596

>  <XCos_Score3>  (11) 
0.0056

$$$$
C#CC1(O)CCN(Cc2c[nH]cn2)CC1
     RDKit          3D

 15 16  0  0  0  0  0  0  0  0999 V2000
    7.5119   -6.4305   28.0105 C   0  0  0  0  0  0  0  0  0  0  0  0
    8.0480   -6.0634   26.9947 C   0  0  0  0  0  0  0  0  0  0  0  0
    8.7062   -5.6121   25.7476 C   0  0  0  0  0  0  0  0  0  0  0  0
    9.5157   -6.6558   25.2608 O   0  0  0  0  0  0  0  0  0  0  0  0
    7.6224   -5.2804   24.7119 C   0  0  0  0  0  0  0  0  0  0  0  0
    8.1855   -4.5403   23.4981 C   0  0  0  0  0  0  0  0  0  0  0  0
    9.0732   -3.4036   23.8599 N   0  0  0  0  0  0  0  0  0  0  0  0
    9.0624   -2.2031   22.9996 C   0  0  0  0  0  0  0  0  0  0  0  0
   10.3575   -1.4604   22.9094 C   0  0  0  0  0  0  0  0  0  0  0  0
   10.9474   -0.7116   23.9070 C   0  0  0  0  0  0  0  0  0  0  0  0
   12.1216   -0.2485   23.4414 N   0  0  0  0  0  0  0  0  0  0  0  0
   12.2294   -0.7214   22.1842 C   0  0  0  0  0  0  0  0  0  0  0  0
   11.1653   -1.4683   21.8328 N   0  0  0  0  0  0  0  0  0  0  0  0
    9.1686   -3.1098   25.2996 C   0  0  0  0  0  0  0  0  0  0  0  0
    9.6003   -4.3806   26.0558 C   0  0  0  0  0  0  0  0  0  0  0  0
  1  2  3  0
  2  3  1  0
  3  4  1  0
  3  5  1  0
  5  6  1  0
  6  7  1  0
  7  8  1  0
  7 14  1  0
  8  9  1  0
  9 10  2  0
 10 11  1  0
 11 12  1  0
 12 13  2  0
 13  9  1  0
 14 15  1  0
 15  3  1  0
M  END
>  <Hit>  (12) 
Mpro-x0387_0

>  <Receptor>  (12) 
Mpro-x1249_0

>  <SCORE>  (12) 
-10.7445

>  <SCORE.norm>  (12) 
-0.71630199999999999

>  <SCORE.heavy>  (12) 
15

>  <OrigSmiles>  (12) 
C#CC1(O)CCN(Cc2c[nH]cn2)CC1

>  <SuCOS_Score>  (12) 
0.4095056359159468

>  <Max_SuCOS_Score>  (12) 
0

>  <Cum_SuCOS_Score>  (12) 
0

>  <TransFSScore_50nM>  (12) 
0.012874999999999999

>  <TransFSScore_1uM>  (12) 
0.085349999999999995

>  <TransFSScore_10nM>  (12) 
0.028074999999999999

>  <TransFSScore_200nM>  (12) 
0.16922699999999999

>  <TransFSScore>  (12) 
0.073881749999999996

>  <FeatureSteinScore>  (12) 
0.40690502150963159

>  <XCos_RefMols>  (12) 
x0708_0,x1382_0

>  <XCos_NumHits>  (12) 
2

>  <XCos_Score1>  (12) 
10.9776

>  <XCos_Score2>  (12) 
0.2481

>  <XCos_Score3>  (12) 
0.0226

$$$$
C#CC1(O)CCN(Cc2c[nH]cn2)CC1
     RDKit          3D

 15 16  0  0  0  0  0  0  0  0999 V2000
    7.6135   -6.4654   28.0883 C   0  0  0  0  0  0  0  0  0  0  0  0
    8.1166   -6.0824   27.0615 C   0  0  0  0  0  0  0  0  0  0  0  0
    8.7337   -5.6116   25.8007 C   0  0  0  0  0  0  0  0  0  0  0  0
    9.5215   -6.6497   25.2682 O   0  0  0  0  0  0  0  0  0  0  0  0
    7.6165   -5.2577   24.8086 C   0  0  0  0  0  0  0  0  0  0  0  0
    8.1409   -4.4984   23.5894 C   0  0  0  0  0  0  0  0  0  0  0  0
    9.0455   -3.3716   23.9403 N   0  0  0  0  0  0  0  0  0  0  0  0
    9.0104   -2.1561   23.1020 C   0  0  0  0  0  0  0  0  0  0  0  0
   10.2974   -1.4002   23.0049 C   0  0  0  0  0  0  0  0  0  0  0  0
   10.8896   -0.6530   24.0022 C   0  0  0  0  0  0  0  0  0  0  0  0
   12.0547   -0.1750   23.5289 N   0  0  0  0  0  0  0  0  0  0  0  0
   12.1549   -0.6376   22.2672 C   0  0  0  0  0  0  0  0  0  0  0  0
   11.0947   -1.3923   21.9205 N   0  0  0  0  0  0  0  0  0  0  0  0
    9.1913   -3.1036   25.3809 C   0  0  0  0  0  0  0  0  0  0  0  0
    9.6431   -4.3891   26.0994 C   0  0  0  0  0  0  0  0  0  0  0  0
  1  2  3  0
  2  3  1  0
  3  4  1  0
  3  5  1  0
  5  6  1  0
  6  7  1  0
  7  8  1  0
  7 14  1  0
  8  9  1  0
  9 10  2  0
 10 11  1  0
 11 12  1  0
 12 13  2  0
 13  9  1  0
 14 15  1  0
 15  3  1  0
M  END
>  <Hit>  (13) 
Mpro-x0387_0

>  <Receptor>  (13) 
Mpro-x1249_0

>  <SCORE>  (13) 
-10.748900000000001

>  <SCORE.norm>  (13) 
-0.71659499999999998

>  <SCORE.heavy>  (13) 
15

>  <OrigSmiles>  (13) 
C#CC1(O)CCN(Cc2c[nH]cn2)CC1

>  <SuCOS_Score>  (13) 
0.41485023473544369

>  <Max_SuCOS_Score>  (13) 
0

>  <Cum_SuCOS_Score>  (13) 
0

>  <TransFSScore_50nM>  (13) 
0.011675

>  <TransFSScore_1uM>  (13) 
0.094399999999999998

>  <TransFSScore_10nM>  (13) 
0.028413000000000001

>  <TransFSScore_200nM>  (13) 
0.16333300000000001

>  <TransFSScore>  (13) 
0.074455250000000001

>  <FeatureSteinScore>  (13) 
0.43000465901561657

>  <XCos_RefMols>  (13) 
x0708_0,x1382_0

>  <XCos_NumHits>  (13) 
2

>  <XCos_Score1>  (13) 
10.9984

>  <XCos_Score2>  (13) 
0.2486

>  <XCos_Score3>  (13) 
0.0226

$$$$
C#CC1(O)CCN(Cc2c[nH]cn2)CC1
     RDKit          3D

 15 16  0  0  0  0  0  0  0  0999 V2000
    7.5610   -6.4766   28.0668 C   0  0  0  0  0  0  0  0  0  0  0  0
    8.0736   -6.1012   27.0418 C   0  0  0  0  0  0  0  0  0  0  0  0
    8.7027   -5.6409   25.7831 C   0  0  0  0  0  0  0  0  0  0  0  0
    9.4844   -6.6880   25.2595 O   0  0  0  0  0  0  0  0  0  0  0  0
    7.5948   -5.2809   24.7828 C   0  0  0  0  0  0  0  0  0  0  0  0
    8.1336   -4.5311   23.5639 C   0  0  0  0  0  0  0  0  0  0  0  0
    9.0460   -3.4110   23.9162 N   0  0  0  0  0  0  0  0  0  0  0  0
    9.0271   -2.1986   23.0730 C   0  0  0  0  0  0  0  0  0  0  0  0
   10.3197   -1.4513   22.9856 C   0  0  0  0  0  0  0  0  0  0  0  0
   10.9213   -0.7278   23.9948 C   0  0  0  0  0  0  0  0  0  0  0  0
   12.0886   -0.2504   23.5265 N   0  0  0  0  0  0  0  0  0  0  0  0
   12.1810   -0.6900   22.2561 C   0  0  0  0  0  0  0  0  0  0  0  0
   11.1136   -1.4295   21.8989 N   0  0  0  0  0  0  0  0  0  0  0  0
    9.1853   -3.1388   25.3565 C   0  0  0  0  0  0  0  0  0  0  0  0
    9.6212   -4.4255   26.0828 C   0  0  0  0  0  0  0  0  0  0  0  0
  1  2  3  0
  2  3  1  0
  3  4  1  0
  3  5  1  0
  5  6  1  0
  6  7  1  0
  7  8  1  0
  7 14  1  0
  8  9  1  0
  9 10  2  0
 10 11  1  0
 11 12  1  0
 12 13  2  0
 13  9  1  0
 14 15  1  0
 15  3  1  0
M  END
>  <Hit>  (14) 
Mpro-x0387_0

>  <Receptor>  (14) 
Mpro-x1249_0

>  <SCORE>  (14) 
-10.801299999999999

>  <SCORE.norm>  (14) 
-0.72008700000000003

>  <SCORE.heavy>  (14) 
15

>  <OrigSmiles>  (14) 
C#CC1(O)CCN(Cc2c[nH]cn2)CC1

>  <SuCOS_Score>  (14) 
0.41118593433063333

>  <Max_SuCOS_Score>  (14) 
0

>  <Cum_SuCOS_Score>  (14) 
0

>  <TransFSScore_50nM>  (14) 
0.011528999999999999

>  <TransFSScore_1uM>  (14) 
0.089830999999999994

>  <TransFSScore_10nM>  (14) 
0.028549000000000001

>  <TransFSScore_200nM>  (14) 
0.16372

>  <TransFSScore>  (14) 
0.073407250000000007

>  <FeatureSteinScore>  (14) 
0.41627866714409228

>  <XCos_RefMols>  (14) 
x0708_0,x1382_0

>  <XCos_NumHits>  (14) 
2

>  <XCos_Score1>  (14) 
10.9074

>  <XCos_Score2>  (14) 
0.2465

>  <XCos_Score3>  (14) 
0.0226

$$$$
C#CC1(O)CCN(Cc2c[nH]cn2)CC1
     RDKit          3D

 15 16  0  0  0  0  0  0  0  0999 V2000
    7.6106   -6.4444   28.1082 C   0  0  0  0  0  0  0  0  0  0  0  0
    8.1111   -6.0716   27.0764 C   0  0  0  0  0  0  0  0  0  0  0  0
    8.7252   -5.6144   25.8092 C   0  0  0  0  0  0  0  0  0  0  0  0
    9.4957   -6.6648   25.2757 O   0  0  0  0  0  0  0  0  0  0  0  0
    7.6056   -5.2503   24.8236 C   0  0  0  0  0  0  0  0  0  0  0  0
    8.1310   -4.5031   23.5973 C   0  0  0  0  0  0  0  0  0  0  0  0
    9.0525   -3.3866   23.9368 N   0  0  0  0  0  0  0  0  0  0  0  0
    9.0272   -2.1744   23.0934 C   0  0  0  0  0  0  0  0  0  0  0  0
   10.3222   -1.4339   22.9863 C   0  0  0  0  0  0  0  0  0  0  0  0
   10.9342   -0.6992   23.9811 C   0  0  0  0  0  0  0  0  0  0  0  0
   12.1000   -0.2331   23.4977 N   0  0  0  0  0  0  0  0  0  0  0  0
   12.1811   -0.6904   22.2327 C   0  0  0  0  0  0  0  0  0  0  0  0
   11.1081   -1.4302   21.8936 N   0  0  0  0  0  0  0  0  0  0  0  0
    9.2122   -3.1143   25.3750 C   0  0  0  0  0  0  0  0  0  0  0  0
    9.6525   -4.4025   26.0960 C   0  0  0  0  0  0  0  0  0  0  0  0
  1  2  3  0
  2  3  1  0
  3  4  1  0
  3  5  1  0
  5  6  1  0
  6  7  1  0
  7  8  1  0
  7 14  1  0
  8  9  1  0
  9 10  2  0
 10 11  1  0
 11 12  1  0
 12 13  2  0
 13  9  1  0
 14 15  1  0
 15  3  1  0
M  END
>  <Hit>  (15) 
Mpro-x0387_0

>  <Receptor>  (15) 
Mpro-x1249_0

>  <SCORE>  (15) 
-10.8285

>  <SCORE.norm>  (15) 
-0.72190299999999996

>  <SCORE.heavy>  (15) 
15

>  <OrigSmiles>  (15) 
C#CC1(O)CCN(Cc2c[nH]cn2)CC1

>  <SuCOS_Score>  (15) 
0.41816350020969556

>  <Max_SuCOS_Score>  (15) 
0

>  <Cum_SuCOS_Score>  (15) 
0

>  <TransFSScore_50nM>  (15) 
0.011734

>  <TransFSScore_1uM>  (15) 
0.092921000000000004

>  <TransFSScore_10nM>  (15) 
0.027147000000000001

>  <TransFSScore_200nM>  (15) 
0.166992

>  <TransFSScore>  (15) 
0.074698500000000001

>  <FeatureSteinScore>  (15) 
0.4273381073740336

>  <XCos_RefMols>  (15) 
x0708_0,x1382_0

>  <XCos_NumHits>  (15) 
2

>  <XCos_Score1>  (15) 
11.0020

>  <XCos_Score2>  (15) 
0.2486

>  <XCos_Score3>  (15) 
0.0226

$$$$
C#CC1(O)CCN(Cc2c[nH]cn2)CC1
     RDKit          3D

 15 16  0  0  0  0  0  0  0  0999 V2000
    7.7674   -6.3864   28.3618 C   0  0  0  0  0  0  0  0  0  0  0  0
    8.2547   -6.0617   27.3077 C   0  0  0  0  0  0  0  0  0  0  0  0
    8.8536   -5.6627   26.0137 C   0  0  0  0  0  0  0  0  0  0  0  0
    9.5638   -6.7583   25.4876 O   0  0  0  0  0  0  0  0  0  0  0  0
    7.7244   -5.2745   25.0484 C   0  0  0  0  0  0  0  0  0  0  0  0
    8.2482   -4.5811   23.7902 C   0  0  0  0  0  0  0  0  0  0  0  0
    9.2255   -3.4977   24.0772 N   0  0  0  0  0  0  0  0  0  0  0  0
    9.2293   -2.3066   23.2040 C   0  0  0  0  0  0  0  0  0  0  0  0
   10.5476   -1.6150   23.0593 C   0  0  0  0  0  0  0  0  0  0  0  0
   11.2652   -0.9946   24.0613 C   0  0  0  0  0  0  0  0  0  0  0  0
   12.4141   -0.5386   23.5301 N   0  0  0  0  0  0  0  0  0  0  0  0
   12.3807   -0.8891   22.2293 C   0  0  0  0  0  0  0  0  0  0  0  0
   11.2513   -1.5511   21.9136 N   0  0  0  0  0  0  0  0  0  0  0  0
    9.4352   -3.1975   25.5034 C   0  0  0  0  0  0  0  0  0  0  0  0
    9.8392   -4.4856   26.2455 C   0  0  0  0  0  0  0  0  0  0  0  0
  1  2  3  0
  2  3  1  0
  3  4  1  0
  3  5  1  0
  5  6  1  0
  6  7  1  0
  7  8  1  0
  7 14  1  0
  8  9  1  0
  9 10  2  0
 10 11  1  0
 11 12  1  0
 12 13  2  0
 13  9  1  0
 14 15  1  0
 15  3  1  0
M  END
>  <Hit>  (16) 
Mpro-x0387_0

>  <Receptor>  (16) 
Mpro-x0305_0

>  <SCORE>  (16) 
-11.020799999999999

>  <SCORE.norm>  (16) 
-0.73472000000000004

>  <SCORE.heavy>  (16) 
15

>  <OrigSmiles>  (16) 
C#CC1(O)CCN(Cc2c[nH]cn2)CC1

>  <SuCOS_Score>  (16) 
0.45846450457525506

>  <Max_SuCOS_Score>  (16) 
0

>  <Cum_SuCOS_Score>  (16) 
0

>  <TransFSScore_50nM>  (16) 
0.017863

>  <TransFSScore_1uM>  (16) 
0.097293000000000004

>  <TransFSScore_10nM>  (16) 
0.031535000000000001

>  <TransFSScore_200nM>  (16) 
0.181174

>  <TransFSScore>  (16) 
0.081966250000000004

>  <FeatureSteinScore>  (16) 
0.4319439430186785

>  <XCos_RefMols>  (16) 
x1392_0,x1382_0

>  <XCos_NumHits>  (16) 
2

>  <XCos_Score1>  (16) 
10.8303

>  <XCos_Score2>  (16) 
0.2448

>  <XCos_Score3>  (16) 
0.0226

$$$$
C#CC1(O)CCN(Cc2cc[nH]n2)CC1
     RDKit          3D

 15 16  0  0  0  0  0  0  0  0999 V2000
    7.7224   -6.3375   27.5805 C   0  0  0  0  0  0  0  0  0  0  0  0
    8.2211   -5.9350   26.5591 C   0  0  0  0  0  0  0  0  0  0  0  0
    8.8330   -5.4413   25.3046 C   0  0  0  0  0  0  0  0  0  0  0  0
    9.5658   -6.4893   24.7163 O   0  0  0  0  0  0  0  0  0  0  0  0
    7.7127   -5.0028   24.3504 C   0  0  0  0  0  0  0  0  0  0  0  0
    8.2456   -4.2196   23.1500 C   0  0  0  0  0  0  0  0  0  0  0  0
    9.2032   -3.1458   23.5247 N   0  0  0  0  0  0  0  0  0  0  0  0
    9.2043   -1.8993   22.7324 C   0  0  0  0  0  0  0  0  0  0  0  0
   10.5458   -1.2776   22.5066 C   0  0  0  0  0  0  0  0  0  0  0  0
   11.2925   -0.5935   23.4424 C   0  0  0  0  0  0  0  0  0  0  0  0
   12.4093   -0.1756   22.7449 C   0  0  0  0  0  0  0  0  0  0  0  0
   12.3239   -0.5849   21.4630 N   0  0  0  0  0  0  0  0  0  0  0  0
   11.1892   -1.2510   21.3261 N   0  0  0  0  0  0  0  0  0  0  0  0
    9.3877   -2.9397   24.9709 C   0  0  0  0  0  0  0  0  0  0  0  0
    9.7987   -4.2700   25.6306 C   0  0  0  0  0  0  0  0  0  0  0  0
  1  2  3  0
  2  3  1  0
  3  4  1  0
  3  5  1  0
  5  6  1  0
  6  7  1  0
  7  8  1  0
  7 14  1  0
  8  9  1  0
  9 10  1  0
 10 11  2  0
 11 12  1  0
 12 13  1  0
 13  9  2  0
 14 15  1  0
 15  3  1  0
M  END
>  <Hit>  (17) 
Mpro-x0387_0

>  <Receptor>  (17) 
Mpro-x0874_0

>  <SCORE>  (17) 
-10.709899999999999

>  <SCORE.norm>  (17) 
-0.71399500000000005

>  <SCORE.heavy>  (17) 
15

>  <OrigSmiles>  (17) 
C#CC1(O)CCN(Cc2cc[nH]n2)CC1

>  <SuCOS_Score>  (17) 
0.37907126661302598

>  <Max_SuCOS_Score>  (17) 
0

>  <Cum_SuCOS_Score>  (17) 
0

>  <TransFSScore_50nM>  (17) 
0.0087469999999999996

>  <TransFSScore_1uM>  (17) 
0.033614999999999999

>  <TransFSScore_10nM>  (17) 
0.011183

>  <TransFSScore_200nM>  (17) 
0.021010000000000001

>  <TransFSScore>  (17) 
0.018638749999999999

>  <FeatureSteinScore>  (17) 
0.31123023241661285

>  <XCos_RefMols>  (17) 
x1392_0,x1382_0

>  <XCos_NumHits>  (17) 
2

>  <XCos_Score1>  (17) 
10.7309

>  <XCos_Score2>  (17) 
0.0606

>  <XCos_Score3>  (17) 
0.0056

$$$$
C#CC1(O)CCN(Cc2cc[nH]n2)CC1
     RDKit          3D

 15 16  0  0  0  0  0  0  0  0999 V2000
    7.6194   -6.3961   28.0409 C   0  0  0  0  0  0  0  0  0  0  0  0
    8.1366   -6.0531   27.0070 C   0  0  0  0  0  0  0  0  0  0  0  0
    8.7710   -5.6320   25.7372 C   0  0  0  0  0  0  0  0  0  0  0  0
    9.5389   -6.7016   25.2393 O   0  0  0  0  0  0  0  0  0  0  0  0
    7.6673   -5.2823   24.7285 C   0  0  0  0  0  0  0  0  0  0  0  0
    8.2156   -4.5704   23.4914 C   0  0  0  0  0  0  0  0  0  0  0  0
    9.1423   -3.4538   23.8158 N   0  0  0  0  0  0  0  0  0  0  0  0
    9.1395   -2.2636   22.9413 C   0  0  0  0  0  0  0  0  0  0  0  0
   10.4639   -1.5938   22.7564 C   0  0  0  0  0  0  0  0  0  0  0  0
   11.1390   -0.8486   23.7063 C   0  0  0  0  0  0  0  0  0  0  0  0
   12.2706   -0.3987   23.0513 C   0  0  0  0  0  0  0  0  0  0  0  0
   12.2509   -0.8543   21.7848 N   0  0  0  0  0  0  0  0  0  0  0  0
   11.1576   -1.5742   21.6036 N   0  0  0  0  0  0  0  0  0  0  0  0
    9.2855   -3.1473   25.2488 C   0  0  0  0  0  0  0  0  0  0  0  0
    9.7051   -4.4213   26.0069 C   0  0  0  0  0  0  0  0  0  0  0  0
  1  2  3  0
  2  3  1  0
  3  4  1  0
  3  5  1  0
  5  6  1  0
  6  7  1  0
  7  8  1  0
  7 14  1  0
  8  9  1  0
  9 10  1  0
 10 11  2  0
 11 12  1  0
 12 13  1  0
 13  9  2  0
 14 15  1  0
 15  3  1  0
M  END
>  <Hit>  (18) 
Mpro-x0387_0

>  <Receptor>  (18) 
Mpro-x0874_0

>  <SCORE>  (18) 
-10.716200000000001

>  <SCORE.norm>  (18) 
-0.71441200000000005

>  <SCORE.heavy>  (18) 
15

>  <OrigSmiles>  (18) 
C#CC1(O)CCN(Cc2cc[nH]n2)CC1

>  <SuCOS_Score>  (18) 
0.40478333983396697

>  <Max_SuCOS_Score>  (18) 
0

>  <Cum_SuCOS_Score>  (18) 
0

>  <TransFSScore_50nM>  (18) 
0.0053229999999999996

>  <TransFSScore_1uM>  (18) 
0.040034

>  <TransFSScore_10nM>  (18) 
0.0065319999999999996

>  <TransFSScore_200nM>  (18) 
0.025760999999999999

>  <TransFSScore>  (18) 
0.019412499999999999

>  <FeatureSteinScore>  (18) 
0.33006134744059945

>  <XCos_RefMols>  (18) 
x1392_0,x1382_0

>  <XCos_NumHits>  (18) 
2

>  <XCos_Score1>  (18) 
11.1138

>  <XCos_Score2>  (18) 
0.1256

>  <XCos_Score3>  (18) 
0.0113

$$$$
C#CC1(O)CCN(Cc2cc[nH]n2)CC1
     RDKit          3D

 15 16  0  0  0  0  0  0  0  0999 V2000
    7.6967   -6.2953   27.5016 C   0  0  0  0  0  0  0  0  0  0  0  0
    8.2059   -5.8847   26.4886 C   0  0  0  0  0  0  0  0  0  0  0  0
    8.8307   -5.3800   25.2450 C   0  0  0  0  0  0  0  0  0  0  0  0
    9.5798   -6.4191   24.6615 O   0  0  0  0  0  0  0  0  0  0  0  0
    7.7199   -4.9455   24.2778 C   0  0  0  0  0  0  0  0  0  0  0  0
    8.2627   -4.1521   23.0887 C   0  0  0  0  0  0  0  0  0  0  0  0
    9.2065   -3.0726   23.4816 N   0  0  0  0  0  0  0  0  0  0  0  0
    9.2083   -1.8222   22.6955 C   0  0  0  0  0  0  0  0  0  0  0  0
   10.5469   -1.1852   22.4966 C   0  0  0  0  0  0  0  0  0  0  0  0
   11.2809   -0.5196   23.4555 C   0  0  0  0  0  0  0  0  0  0  0  0
   12.4002   -0.0760   22.7780 C   0  0  0  0  0  0  0  0  0  0  0  0
   12.3282   -0.4533   21.4855 N   0  0  0  0  0  0  0  0  0  0  0  0
   11.1996   -1.1239   21.3225 N   0  0  0  0  0  0  0  0  0  0  0  0
    9.3699   -2.8724   24.9311 C   0  0  0  0  0  0  0  0  0  0  0  0
    9.7825   -4.2026   25.5898 C   0  0  0  0  0  0  0  0  0  0  0  0
  1  2  3  0
  2  3  1  0
  3  4  1  0
  3  5  1  0
  5  6  1  0
  6  7  1  0
  7  8  1  0
  7 14  1  0
  8  9  1  0
  9 10  1  0
 10 11  2  0
 11 12  1  0
 12 13  1  0
 13  9  2  0
 14 15  1  0
 15  3  1  0
M  END
>  <Hit>  (19) 
Mpro-x0387_0

>  <Receptor>  (19) 
Mpro-x0874_0

>  <SCORE>  (19) 
-10.8588

>  <SCORE.norm>  (19) 
-0.72392000000000001

>  <SCORE.heavy>  (19) 
15

>  <OrigSmiles>  (19) 
C#CC1(O)CCN(Cc2cc[nH]n2)CC1

>  <SuCOS_Score>  (19) 
0.37532138387770453

>  <Max_SuCOS_Score>  (19) 
0

>  <Cum_SuCOS_Score>  (19) 
0

>  <TransFSScore_50nM>  (19) 
0.008633

>  <TransFSScore_1uM>  (19) 
0.032284

>  <TransFSScore_10nM>  (19) 
0.013351999999999999

>  <TransFSScore_200nM>  (19) 
0.021673999999999999

>  <TransFSScore>  (19) 
0.018985749999999999

>  <FeatureSteinScore>  (19) 
0.32041413655919571

>  <XCos_RefMols>  (19) 
x1392_0

>  <XCos_NumHits>  (19) 
1

>  <XCos_Score1>  (19) 
10.6243

>  <XCos_Score2>  (19) 
0.0600

>  <XCos_Score3>  (19) 
0.0056

$$$$
C#CC1(O)CCN(Cc2cc[nH]n2)CC1
     RDKit          3D

 15 16  0  0  0  0  0  0  0  0999 V2000
    7.7205   -6.2817   27.5374 C   0  0  0  0  0  0  0  0  0  0  0  0
    8.2186   -5.8873   26.5125 C   0  0  0  0  0  0  0  0  0  0  0  0
    8.8295   -5.4026   25.2541 C   0  0  0  0  0  0  0  0  0  0  0  0
    9.5544   -6.4574   24.6680 O   0  0  0  0  0  0  0  0  0  0  0  0
    7.7089   -4.9615   24.3015 C   0  0  0  0  0  0  0  0  0  0  0  0
    8.2427   -4.1865   23.0962 C   0  0  0  0  0  0  0  0  0  0  0  0
    9.2078   -3.1168   23.4634 N   0  0  0  0  0  0  0  0  0  0  0  0
    9.2137   -1.8737   22.6658 C   0  0  0  0  0  0  0  0  0  0  0  0
   10.5498   -1.2249   22.4891 C   0  0  0  0  0  0  0  0  0  0  0  0
   11.2797   -0.5871   23.4698 C   0  0  0  0  0  0  0  0  0  0  0  0
   12.3979   -0.1174   22.8084 C   0  0  0  0  0  0  0  0  0  0  0  0
   12.3291   -0.4536   21.5044 N   0  0  0  0  0  0  0  0  0  0  0  0
   11.2037   -1.1236   21.3185 N   0  0  0  0  0  0  0  0  0  0  0  0
    9.3980   -2.9057   24.9081 C   0  0  0  0  0  0  0  0  0  0  0  0
    9.8031   -4.2356   25.5722 C   0  0  0  0  0  0  0  0  0  0  0  0
  1  2  3  0
  2  3  1  0
  3  4  1  0
  3  5  1  0
  5  6  1  0
  6  7  1  0
  7  8  1  0
  7 14  1  0
  8  9  1  0
  9 10  1  0
 10 11  2  0
 11 12  1  0
 12 13  1  0
 13  9  2  0
 14 15  1  0
 15  3  1  0
M  END
>  <Hit>  (20) 
Mpro-x0387_0

>  <Receptor>  (20) 
Mpro-x0874_0

>  <SCORE>  (20) 
-10.861599999999999

>  <SCORE.norm>  (20) 
-0.724105

>  <SCORE.heavy>  (20) 
15

>  <OrigSmiles>  (20) 
C#CC1(O)CCN(Cc2cc[nH]n2)CC1

>  <SuCOS_Score>  (20) 
0.37450707032016406

>  <Max_SuCOS_Score>  (20) 
0

>  <Cum_SuCOS_Score>  (20) 
0

>  <TransFSScore_50nM>  (20) 
0.0088540000000000008

>  <TransFSScore_1uM>  (20) 
0.034752999999999999

>  <TransFSScore_10nM>  (20) 
0.012822

>  <TransFSScore_200nM>  (20) 
0.022372

>  <TransFSScore>  (20) 
0.019700249999999999

>  <FeatureSteinScore>  (20) 
0.31095538924734151

>  <XCos_RefMols>  (20) 
x1392_0

>  <XCos_NumHits>  (20) 
1

>  <XCos_Score1>  (20) 
10.7433

>  <XCos_Score2>  (20) 
0.0607

>  <XCos_Score3>  (20) 
0.0056

$$$$
C#CC1(O)CCN(Cc2cc[nH]n2)CC1
     RDKit          3D

 15 16  0  0  0  0  0  0  0  0999 V2000
    7.6722   -6.3335   27.4976 C   0  0  0  0  0  0  0  0  0  0  0  0
    8.1824   -5.9119   26.4897 C   0  0  0  0  0  0  0  0  0  0  0  0
    8.8086   -5.3949   25.2518 C   0  0  0  0  0  0  0  0  0  0  0  0
    9.5453   -6.4328   24.6505 O   0  0  0  0  0  0  0  0  0  0  0  0
    7.6995   -4.9347   24.2947 C   0  0  0  0  0  0  0  0  0  0  0  0
    8.2468   -4.1291   23.1159 C   0  0  0  0  0  0  0  0  0  0  0  0
    9.2028   -3.0652   23.5220 N   0  0  0  0  0  0  0  0  0  0  0  0
    9.2151   -1.8033   22.7547 C   0  0  0  0  0  0  0  0  0  0  0  0
   10.5654   -1.2090   22.5087 C   0  0  0  0  0  0  0  0  0  0  0  0
   11.3130   -0.4868   23.4147 C   0  0  0  0  0  0  0  0  0  0  0  0
   12.4399   -0.1175   22.7060 C   0  0  0  0  0  0  0  0  0  0  0  0
   12.3594   -0.5902   21.4458 N   0  0  0  0  0  0  0  0  0  0  0  0
   11.2180   -1.2496   21.3336 N   0  0  0  0  0  0  0  0  0  0  0  0
    9.3725   -2.8885   24.9739 C   0  0  0  0  0  0  0  0  0  0  0  0
    9.7735   -4.2326   25.6113 C   0  0  0  0  0  0  0  0  0  0  0  0
  1  2  3  0
  2  3  1  0
  3  4  1  0
  3  5  1  0
  5  6  1  0
  6  7  1  0
  7  8  1  0
  7 14  1  0
  8  9  1  0
  9 10  1  0
 10 11  2  0
 11 12  1  0
 12 13  1  0
 13  9  2  0
 14 15  1  0
 15  3  1  0
M  END
>  <Hit>  (21) 
Mpro-x0387_0

>  <Receptor>  (21) 
Mpro-x0874_0

>  <SCORE>  (21) 
-10.9017

>  <SCORE.norm>  (21) 
-0.72678299999999996

>  <SCORE.heavy>  (21) 
15

>  <OrigSmiles>  (21) 
C#CC1(O)CCN(Cc2cc[nH]n2)CC1

>  <SuCOS_Score>  (21) 
0.37937700298632343

>  <Max_SuCOS_Score>  (21) 
0

>  <Cum_SuCOS_Score>  (21) 
0

>  <TransFSScore_50nM>  (21) 
0.0085570000000000004

>  <TransFSScore_1uM>  (21) 
0.0298

>  <TransFSScore_10nM>  (21) 
0.012522999999999999

>  <TransFSScore_200nM>  (21) 
0.019736

>  <TransFSScore>  (21) 
0.017654

>  <FeatureSteinScore>  (21) 
0.31786980015283922

>  <XCos_RefMols>  (21) 
x0708_0

>  <XCos_NumHits>  (21) 
1

>  <XCos_Score1>  (21) 
10.5403

>  <XCos_Score2>  (21) 
0.0595

>  <XCos_Score3>  (21) 
0.0056

$$$$
C#CC1(O)CCN(Cc2cc[nH]n2)CC1
     RDKit          3D

 15 16  0  0  0  0  0  0  0  0999 V2000
    7.6429   -6.3238   28.0578 C   0  0  0  0  0  0  0  0  0  0  0  0
    8.1460   -6.0122   27.0072 C   0  0  0  0  0  0  0  0  0  0  0  0
    8.7643   -5.6301   25.7174 C   0  0  0  0  0  0  0  0  0  0  0  0
    9.5275   -6.7138   25.2435 O   0  0  0  0  0  0  0  0  0  0  0  0
    7.6481   -5.3128   24.7118 C   0  0  0  0  0  0  0  0  0  0  0  0
    8.1805   -4.6390   23.4466 C   0  0  0  0  0  0  0  0  0  0  0  0
    9.1095   -3.5122   23.7250 N   0  0  0  0  0  0  0  0  0  0  0  0
    9.0947   -2.3497   22.8141 C   0  0  0  0  0  0  0  0  0  0  0  0
   10.3744   -1.5803   22.7264 C   0  0  0  0  0  0  0  0  0  0  0  0
   10.9312   -0.8121   23.7270 C   0  0  0  0  0  0  0  0  0  0  0  0
   12.0642   -0.2727   23.1492 C   0  0  0  0  0  0  0  0  0  0  0  0
   12.1677   -0.6939   21.8725 N   0  0  0  0  0  0  0  0  0  0  0  0
   11.1373   -1.4852   21.6232 N   0  0  0  0  0  0  0  0  0  0  0  0
    9.2697   -3.1613   25.1460 C   0  0  0  0  0  0  0  0  0  0  0  0
    9.7001   -4.4108   25.9380 C   0  0  0  0  0  0  0  0  0  0  0  0
  1  2  3  0
  2  3  1  0
  3  4  1  0
  3  5  1  0
  5  6  1  0
  6  7  1  0
  7  8  1  0
  7 14  1  0
  8  9  1  0
  9 10  1  0
 10 11  2  0
 11 12  1  0
 12 13  1  0
 13  9  2  0
 14 15  1  0
 15  3  1  0
M  END
>  <Hit>  (22) 
Mpro-x0387_0

>  <Receptor>  (22) 
Mpro-x1249_0

>  <SCORE>  (22) 
-11.138400000000001

>  <SCORE.norm>  (22) 
-0.74256100000000003

>  <SCORE.heavy>  (22) 
15

>  <OrigSmiles>  (22) 
C#CC1(O)CCN(Cc2cc[nH]n2)CC1

>  <SuCOS_Score>  (22) 
0.38497009753637351

>  <Max_SuCOS_Score>  (22) 
0

>  <Cum_SuCOS_Score>  (22) 
0

>  <TransFSScore_50nM>  (22) 
0.0037789999999999998

>  <TransFSScore_1uM>  (22) 
0.037011000000000002

>  <TransFSScore_10nM>  (22) 
0.0071859999999999997

>  <TransFSScore_200nM>  (22) 
0.028101000000000001

>  <TransFSScore>  (22) 
0.019019250000000001

>  <FeatureSteinScore>  (22) 
0.32347550449582674

>  <XCos_RefMols>  (22) 
x1392_0,x1382_0,x1385_0

>  <XCos_NumHits>  (22) 
3

>  <XCos_Score1>  (22) 
11.2319

>  <XCos_Score2>  (22) 
0.1269

>  <XCos_Score3>  (22) 
0.0113

$$$$
C#CC1(O)CCN(Cc2cc[nH]n2)CC1
     RDKit          3D

 15 16  0  0  0  0  0  0  0  0999 V2000
    7.5311   -6.3680   28.0944 C   0  0  0  0  0  0  0  0  0  0  0  0
    8.0430   -6.0184   27.0601 C   0  0  0  0  0  0  0  0  0  0  0  0
    8.6717   -5.5884   25.7904 C   0  0  0  0  0  0  0  0  0  0  0  0
    9.4507   -6.6488   25.2902 O   0  0  0  0  0  0  0  0  0  0  0  0
    7.5634   -5.2492   24.7833 C   0  0  0  0  0  0  0  0  0  0  0  0
    8.1027   -4.5295   23.5467 C   0  0  0  0  0  0  0  0  0  0  0  0
    9.0175   -3.4033   23.8721 N   0  0  0  0  0  0  0  0  0  0  0  0
    9.0010   -2.2119   22.9994 C   0  0  0  0  0  0  0  0  0  0  0  0
   10.2842   -1.4474   22.9244 C   0  0  0  0  0  0  0  0  0  0  0  0
   10.8133   -0.6451   23.9192 C   0  0  0  0  0  0  0  0  0  0  0  0
   11.9641   -0.1187   23.3622 C   0  0  0  0  0  0  0  0  0  0  0  0
   12.0938   -0.5864   22.1066 N   0  0  0  0  0  0  0  0  0  0  0  0
   11.0772   -1.3873   21.8389 N   0  0  0  0  0  0  0  0  0  0  0  0
    9.1587   -3.0975   25.3054 C   0  0  0  0  0  0  0  0  0  0  0  0
    9.5928   -4.3680   26.0611 C   0  0  0  0  0  0  0  0  0  0  0  0
  1  2  3  0
  2  3  1  0
  3  4  1  0
  3  5  1  0
  5  6  1  0
  6  7  1  0
  7  8  1  0
  7 14  1  0
  8  9  1  0
  9 10  1  0
 10 11  2  0
 11 12  1  0
 12 13  1  0
 13  9  2  0
 14 15  1  0
 15  3  1  0
M  END
>  <Hit>  (23) 
Mpro-x0387_0

>  <Receptor>  (23) 
Mpro-x1249_0

>  <SCORE>  (23) 
-11.141

>  <SCORE.norm>  (23) 
-0.74273599999999995

>  <SCORE.heavy>  (23) 
15

>  <OrigSmiles>  (23) 
C#CC1(O)CCN(Cc2cc[nH]n2)CC1

>  <SuCOS_Score>  (23) 
0.39587476592741611

>  <Max_SuCOS_Score>  (23) 
0

>  <Cum_SuCOS_Score>  (23) 
0

>  <TransFSScore_50nM>  (23) 
0.003339

>  <TransFSScore_1uM>  (23) 
0.036611999999999999

>  <TransFSScore_10nM>  (23) 
0.0090989999999999994

>  <TransFSScore_200nM>  (23) 
0.023174

>  <TransFSScore>  (23) 
0.018055999999999999

>  <FeatureSteinScore>  (23) 
0.38872509529427313

>  <XCos_RefMols>  (23) 
x0708_0,x1382_0

>  <XCos_NumHits>  (23) 
2

>  <XCos_Score1>  (23) 
11.2049

>  <XCos_Score2>  (23) 
0.1899

>  <XCos_Score3>  (23) 
0.0169

$$$$
C#CC1(O)CCN(Cc2cc[nH]n2)CC1
     RDKit          3D

 15 16  0  0  0  0  0  0  0  0999 V2000
    7.7663   -6.3476   28.3608 C   0  0  0  0  0  0  0  0  0  0  0  0
    8.2621   -6.0340   27.3073 C   0  0  0  0  0  0  0  0  0  0  0  0
    8.8703   -5.6490   26.0135 C   0  0  0  0  0  0  0  0  0  0  0  0
    9.5715   -6.7550   25.4969 O   0  0  0  0  0  0  0  0  0  0  0  0
    7.7491   -5.2552   25.0410 C   0  0  0  0  0  0  0  0  0  0  0  0
    8.2855   -4.5756   23.7807 C   0  0  0  0  0  0  0  0  0  0  0  0
    9.2723   -3.5004   24.0651 N   0  0  0  0  0  0  0  0  0  0  0  0
    9.2928   -2.3161   23.1828 C   0  0  0  0  0  0  0  0  0  0  0  0
   10.6162   -1.6326   23.0482 C   0  0  0  0  0  0  0  0  0  0  0  0
   11.2778   -0.9361   24.0435 C   0  0  0  0  0  0  0  0  0  0  0  0
   12.4145   -0.4482   23.4258 C   0  0  0  0  0  0  0  0  0  0  0  0
   12.4107   -0.8364   22.1368 N   0  0  0  0  0  0  0  0  0  0  0  0
   11.3225   -1.5498   21.9058 N   0  0  0  0  0  0  0  0  0  0  0  0
    9.4790   -3.1929   25.4901 C   0  0  0  0  0  0  0  0  0  0  0  0
    9.8668   -4.4803   26.2422 C   0  0  0  0  0  0  0  0  0  0  0  0
  1  2  3  0
  2  3  1  0
  3  4  1  0
  3  5  1  0
  5  6  1  0
  6  7  1  0
  7  8  1  0
  7 14  1  0
  8  9  1  0
  9 10  1  0
 10 11  2  0
 11 12  1  0
 12 13  1  0
 13  9  2  0
 14 15  1  0
 15  3  1  0
M  END
>  <Hit>  (24) 
Mpro-x0387_0

>  <Receptor>  (24) 
Mpro-x0305_0

>  <SCORE>  (24) 
-11.329800000000001

>  <SCORE.norm>  (24) 
-0.75531800000000004

>  <SCORE.heavy>  (24) 
15

>  <OrigSmiles>  (24) 
C#CC1(O)CCN(Cc2cc[nH]n2)CC1

>  <SuCOS_Score>  (24) 
0.4651661005686239

>  <Max_SuCOS_Score>  (24) 
0

>  <Cum_SuCOS_Score>  (24) 
0

>  <TransFSScore_50nM>  (24) 
0.0093360000000000005

>  <TransFSScore_1uM>  (24) 
0.035869999999999999

>  <TransFSScore_10nM>  (24) 
0.0080099999999999998

>  <TransFSScore_200nM>  (24) 
0.032591000000000002

>  <TransFSScore>  (24) 
0.021451749999999999

>  <FeatureSteinScore>  (24) 
0.36826610654113057

>  <XCos_RefMols>  (24) 
x1392_0,x1382_0,x1385_0

>  <XCos_NumHits>  (24) 
3

>  <XCos_Score1>  (24) 
11.0667

>  <XCos_Score2>  (24) 
0.1876

>  <XCos_Score3>  (24) 
0.0169

$$$$
C#CC1(O)CCN(Cc2cc[nH]n2)CC1
     RDKit          3D

 15 16  0  0  0  0  0  0  0  0999 V2000
    7.7734   -6.3168   28.3297 C   0  0  0  0  0  0  0  0  0  0  0  0
    8.2698   -6.0147   27.2731 C   0  0  0  0  0  0  0  0  0  0  0  0
    8.8800   -5.6440   25.9761 C   0  0  0  0  0  0  0  0  0  0  0  0
    9.5740   -6.7584   25.4683 O   0  0  0  0  0  0  0  0  0  0  0  0
    7.7610   -5.2511   25.0008 C   0  0  0  0  0  0  0  0  0  0  0  0
    8.3012   -4.5850   23.7349 C   0  0  0  0  0  0  0  0  0  0  0  0
    9.2948   -3.5137   24.0103 N   0  0  0  0  0  0  0  0  0  0  0  0
    9.3224   -2.3367   23.1185 C   0  0  0  0  0  0  0  0  0  0  0  0
   10.6533   -1.6719   22.9660 C   0  0  0  0  0  0  0  0  0  0  0  0
   11.3511   -1.0094   23.9598 C   0  0  0  0  0  0  0  0  0  0  0  0
   12.4801   -0.5258   23.3247 C   0  0  0  0  0  0  0  0  0  0  0  0
   12.4376   -0.8840   22.0278 N   0  0  0  0  0  0  0  0  0  0  0  0
   11.3321   -1.5741   21.8083 N   0  0  0  0  0  0  0  0  0  0  0  0
    9.5039   -3.1960   25.4328 C   0  0  0  0  0  0  0  0  0  0  0  0
    9.8839   -4.4798   26.1951 C   0  0  0  0  0  0  0  0  0  0  0  0
  1  2  3  0
  2  3  1  0
  3  4  1  0
  3  5  1  0
  5  6  1  0
  6  7  1  0
  7  8  1  0
  7 14  1  0
  8  9  1  0
  9 10  1  0
 10 11  2  0
 11 12  1  0
 12 13  1  0
 13  9  2  0
 14 15  1  0
 15  3  1  0
M  END
>  <Hit>  (25) 
Mpro-x0387_0

>  <Receptor>  (25) 
Mpro-x0305_0

>  <SCORE>  (25) 
-11.344200000000001

>  <SCORE.norm>  (25) 
-0.75627999999999995

>  <SCORE.heavy>  (25) 
15

>  <OrigSmiles>  (25) 
C#CC1(O)CCN(Cc2cc[nH]n2)CC1

>  <SuCOS_Score>  (25) 
0.45746306692021177

>  <Max_SuCOS_Score>  (25) 
0

>  <Cum_SuCOS_Score>  (25) 
0

>  <TransFSScore_50nM>  (25) 
0.0096229999999999996

>  <TransFSScore_1uM>  (25) 
0.034533000000000001

>  <TransFSScore_10nM>  (25) 
0.0074229999999999999

>  <TransFSScore_200nM>  (25) 
0.035889999999999998

>  <TransFSScore>  (25) 
0.021867249999999998

>  <FeatureSteinScore>  (25) 
0.35095349058334629

>  <XCos_RefMols>  (25) 
x1392_0,x1382_0,x1385_0

>  <XCos_NumHits>  (25) 
3

>  <XCos_Score1>  (25) 
11.1217

>  <XCos_Score2>  (25) 
0.1885

>  <XCos_Score3>  (25) 
0.0169

$$$$
C#CC1(O)CCN(Cc2cc[nH]n2)CC1
     RDKit          3D

 15 16  0  0  0  0  0  0  0  0999 V2000
    7.7251   -5.8092   27.0341 C   0  0  0  0  0  0  0  0  0  0  0  0
    8.3227   -5.4608   26.0464 C   0  0  0  0  0  0  0  0  0  0  0  0
    9.0572   -5.0333   24.8341 C   0  0  0  0  0  0  0  0  0  0  0  0
    9.5442   -6.1771   24.1739 O   0  0  0  0  0  0  0  0  0  0  0  0
    8.0865   -4.2842   23.9097 C   0  0  0  0  0  0  0  0  0  0  0  0
    8.8089   -3.5613   22.7722 C   0  0  0  0  0  0  0  0  0  0  0  0
    9.9779   -2.7640   23.2287 N   0  0  0  0  0  0  0  0  0  0  0  0
   10.2795   -1.4983   22.5298 C   0  0  0  0  0  0  0  0  0  0  0  0
   11.6727   -0.9815   22.7001 C   0  0  0  0  0  0  0  0  0  0  0  0
   12.0281    0.2303   23.2538 C   0  0  0  0  0  0  0  0  0  0  0  0
   13.4042    0.2651   23.1381 C   0  0  0  0  0  0  0  0  0  0  0  0
   13.8387   -0.8632   22.5412 N   0  0  0  0  0  0  0  0  0  0  0  0
   12.7816   -1.6134   22.2766 N   0  0  0  0  0  0  0  0  0  0  0  0
   10.1741   -2.7078   24.6869 C   0  0  0  0  0  0  0  0  0  0  0  0
   10.2573   -4.1397   25.2493 C   0  0  0  0  0  0  0  0  0  0  0  0
  1  2  3  0
  2  3  1  0
  3  4  1  0
  3  5  1  0
  5  6  1  0
  6  7  1  0
  7  8  1  0
  7 14  1  0
  8  9  1  0
  9 10  1  0
 10 11  2  0
 11 12  1  0
 12 13  1  0
 13  9  2  0
 14 15  1  0
 15  3  1  0
M  END
>  <Hit>  (26) 
Mpro-x0387_0

>  <Receptor>  (26) 
Mpro-x0305_0

>  <SCORE>  (26) 
-11.369

>  <SCORE.norm>  (26) 
-0.75793500000000003

>  <SCORE.heavy>  (26) 
15

>  <OrigSmiles>  (26) 
C#CC1(O)CCN(Cc2cc[nH]n2)CC1

>  <SuCOS_Score>  (26) 
0.44208333666329991

>  <Max_SuCOS_Score>  (26) 
0

>  <Cum_SuCOS_Score>  (26) 
0

>  <TransFSScore_50nM>  (26) 
0.0057330000000000002

>  <TransFSScore_1uM>  (26) 
0.013727

>  <TransFSScore_10nM>  (26) 
0.0050070000000000002

>  <TransFSScore_200nM>  (26) 
0.011729

>  <TransFSScore>  (26) 
0.0090489999999999998

>  <FeatureSteinScore>  (26) 
0.22280394609821977

>  <XCos_RefMols>  (26) 
x1392_0,x0874_0

>  <XCos_NumHits>  (26) 
2

>  <XCos_Score1>  (26) 
10.3533

>  <XCos_Score2>  (26) 
0.0585

>  <XCos_Score3>  (26) 
0.0056

$$$$
C#CC1(O)CCN(Cc2ccccc2)CC1
     RDKit          3D

 16 17  0  0  0  0  0  0  0  0999 V2000
    9.0987   -1.4392   26.9384 C   0  0  0  0  0  0  0  0  0  0  0  0
    8.8617   -2.5418   26.5080 C   0  0  0  0  0  0  0  0  0  0  0  0
    8.5550   -3.8932   25.9654 C   0  0  0  0  0  0  0  0  0  0  0  0
    8.1678   -4.5087   27.1165 O   0  0  0  0  0  0  0  0  0  0  0  0
    9.7975   -4.5302   25.3622 C   0  0  0  0  0  0  0  0  0  0  0  0
   10.3982   -3.5297   24.3787 C   0  0  0  0  0  0  0  0  0  0  0  0
    9.3819   -2.7215   23.6534 N   0  0  0  0  0  0  0  0  0  0  0  0
    9.8295   -2.0699   22.4179 C   0  0  0  0  0  0  0  0  0  0  0  0
   11.0544   -1.2099   22.5639 C   0  0  0  0  0  0  0  0  0  0  0  0
   11.0764   -0.1778   23.5172 C   0  0  0  0  0  0  0  0  0  0  0  0
   12.2147    0.6200   23.6665 C   0  0  0  0  0  0  0  0  0  0  0  0
   13.3376    0.3955   22.8654 C   0  0  0  0  0  0  0  0  0  0  0  0
   13.3242   -0.6276   21.9135 C   0  0  0  0  0  0  0  0  0  0  0  0
   12.1882   -1.4284   21.7605 C   0  0  0  0  0  0  0  0  0  0  0  0
    8.0723   -3.3969   23.5027 C   0  0  0  0  0  0  0  0  0  0  0  0
    7.4633   -3.7768   24.8825 C   0  0  0  0  0  0  0  0  0  0  0  0
  1  2  3  0
  2  3  1  0
  3  4  1  0
  3  5  1  0
  5  6  1  0
  6  7  1  0
  7  8  1  0
  7 15  1  0
  8  9  1  0
  9 10  2  0
 10 11  1  0
 11 12  2  0
 12 13  1  0
 13 14  2  0
 14  9  1  0
 15 16  1  0
 16  3  1  0
M  END
>  <Hit>  (27) 
Mpro-x0387_0

>  <Receptor>  (27) 
Mpro-x1249_0

>  <SCORE>  (27) 
-10.8596

>  <SCORE.norm>  (27) 
-0.67872699999999997

>  <SCORE.heavy>  (27) 
16

>  <OrigSmiles>  (27) 
C#CC1(O)CCN(Cc2ccccc2)CC1

>  <SuCOS_Score>  (27) 
0.59713282296093251

>  <Max_SuCOS_Score>  (27) 
0

>  <Cum_SuCOS_Score>  (27) 
0

>  <TransFSScore_50nM>  (27) 
0.0044650000000000002

>  <TransFSScore_1uM>  (27) 
0.078126000000000001

>  <TransFSScore_10nM>  (27) 
0.155003

>  <TransFSScore_200nM>  (27) 
0.21170600000000001

>  <TransFSScore>  (27) 
0.11232500000000001

>  <FeatureSteinScore>  (27) 
0.69717931654134258

>  <XCos_RefMols>  (27) 
x1392_0,x0874_0

>  <XCos_NumHits>  (27) 
2

>  <XCos_Score1>  (27) 
13.1699

>  <XCos_Score2>  (27) 
0.2976

>  <XCos_Score3>  (27) 
0.0226

$$$$
C#CC1(O)CCN(Cc2ccccc2)CC1
     RDKit          3D

 16 17  0  0  0  0  0  0  0  0999 V2000
    9.1426   -1.4757   26.9364 C   0  0  0  0  0  0  0  0  0  0  0  0
    8.8678   -2.5706   26.5087 C   0  0  0  0  0  0  0  0  0  0  0  0
    8.5128   -3.9124   25.9718 C   0  0  0  0  0  0  0  0  0  0  0  0
    8.1200   -4.5142   27.1283 O   0  0  0  0  0  0  0  0  0  0  0  0
    9.7276   -4.5887   25.3552 C   0  0  0  0  0  0  0  0  0  0  0  0
   10.3476   -3.6086   24.3631 C   0  0  0  0  0  0  0  0  0  0  0  0
    9.3486   -2.7698   23.6485 N   0  0  0  0  0  0  0  0  0  0  0  0
    9.8019   -2.1340   22.4068 C   0  0  0  0  0  0  0  0  0  0  0  0
   11.0203   -1.2643   22.5494 C   0  0  0  0  0  0  0  0  0  0  0  0
   11.0025   -0.1728   23.4342 C   0  0  0  0  0  0  0  0  0  0  0  0
   12.1342    0.6349   23.5803 C   0  0  0  0  0  0  0  0  0  0  0  0
   13.2901    0.3612   22.8441 C   0  0  0  0  0  0  0  0  0  0  0  0
   13.3165   -0.7211   21.9605 C   0  0  0  0  0  0  0  0  0  0  0  0
   12.1872   -1.5321   21.8110 C   0  0  0  0  0  0  0  0  0  0  0  0
    8.0169   -3.4042   23.5141 C   0  0  0  0  0  0  0  0  0  0  0  0
    7.4125   -3.7632   24.9015 C   0  0  0  0  0  0  0  0  0  0  0  0
  1  2  3  0
  2  3  1  0
  3  4  1  0
  3  5  1  0
  5  6  1  0
  6  7  1  0
  7  8  1  0
  7 15  1  0
  8  9  1  0
  9 10  2  0
 10 11  1  0
 11 12  2  0
 12 13  1  0
 13 14  2  0
 14  9  1  0
 15 16  1  0
 16  3  1  0
M  END
>  <Hit>  (28) 
Mpro-x0387_0

>  <Receptor>  (28) 
Mpro-x1249_0

>  <SCORE>  (28) 
-10.862500000000001

>  <SCORE.norm>  (28) 
-0.67890899999999998

>  <SCORE.heavy>  (28) 
16

>  <OrigSmiles>  (28) 
C#CC1(O)CCN(Cc2ccccc2)CC1

>  <SuCOS_Score>  (28) 
0.59118127845304003

>  <Max_SuCOS_Score>  (28) 
0

>  <Cum_SuCOS_Score>  (28) 
0

>  <TransFSScore_50nM>  (28) 
0.0042700000000000004

>  <TransFSScore_1uM>  (28) 
0.079703999999999997

>  <TransFSScore_10nM>  (28) 
0.14918300000000001

>  <TransFSScore_200nM>  (28) 
0.221861

>  <TransFSScore>  (28) 
0.11375450000000001

>  <FeatureSteinScore>  (28) 
0.68710355520433264

>  <XCos_RefMols>  (28) 
x1392_0,x0874_0

>  <XCos_NumHits>  (28) 
2

>  <XCos_Score1>  (28) 
13.1959

>  <XCos_Score2>  (28) 
0.2982

>  <XCos_Score3>  (28) 
0.0226

$$$$
C#CC1(O)CCN(Cc2ccccc2)CC1
     RDKit          3D

 16 17  0  0  0  0  0  0  0  0999 V2000
    9.0455   -1.5023   26.9282 C   0  0  0  0  0  0  0  0  0  0  0  0
    8.8047   -2.6021   26.4928 C   0  0  0  0  0  0  0  0  0  0  0  0
    8.4877   -3.9539   25.9569 C   0  0  0  0  0  0  0  0  0  0  0  0
    8.0909   -4.5592   27.1101 O   0  0  0  0  0  0  0  0  0  0  0  0
    9.7266   -4.6055   25.3618 C   0  0  0  0  0  0  0  0  0  0  0  0
   10.3397   -3.6162   24.3747 C   0  0  0  0  0  0  0  0  0  0  0  0
    9.3333   -2.8030   23.6411 N   0  0  0  0  0  0  0  0  0  0  0  0
    9.7911   -2.1626   22.4035 C   0  0  0  0  0  0  0  0  0  0  0  0
   10.9910   -1.2698   22.5594 C   0  0  0  0  0  0  0  0  0  0  0  0
   10.9599   -0.2084   23.4797 C   0  0  0  0  0  0  0  0  0  0  0  0
   12.0746    0.6203   23.6381 C   0  0  0  0  0  0  0  0  0  0  0  0
   13.2267    0.3977   22.8790 C   0  0  0  0  0  0  0  0  0  0  0  0
   13.2661   -0.6543   21.9601 C   0  0  0  0  0  0  0  0  0  0  0  0
   12.1539   -1.4861   21.7981 C   0  0  0  0  0  0  0  0  0  0  0  0
    8.0181   -3.4675   23.4896 C   0  0  0  0  0  0  0  0  0  0  0  0
    7.4009   -3.8339   24.8694 C   0  0  0  0  0  0  0  0  0  0  0  0
  1  2  3  0
  2  3  1  0
  3  4  1  0
  3  5  1  0
  5  6  1  0
  6  7  1  0
  7  8  1  0
  7 15  1  0
  8  9  1  0
  9 10  2  0
 10 11  1  0
 11 12  2  0
 12 13  1  0
 13 14  2  0
 14  9  1  0
 15 16  1  0
 16  3  1  0
M  END
>  <Hit>  (29) 
Mpro-x0387_0

>  <Receptor>  (29) 
Mpro-x1249_0

>  <SCORE>  (29) 
-10.918200000000001

>  <SCORE.norm>  (29) 
-0.68238500000000002

>  <SCORE.heavy>  (29) 
16

>  <OrigSmiles>  (29) 
C#CC1(O)CCN(Cc2ccccc2)CC1

>  <SuCOS_Score>  (29) 
0.58650406797488541

>  <Max_SuCOS_Score>  (29) 
0

>  <Cum_SuCOS_Score>  (29) 
0

>  <TransFSScore_50nM>  (29) 
0.004352

>  <TransFSScore_1uM>  (29) 
0.082692000000000002

>  <TransFSScore_10nM>  (29) 
0.142342

>  <TransFSScore_200nM>  (29) 
0.234014

>  <TransFSScore>  (29) 
0.11584999999999999

>  <FeatureSteinScore>  (29) 
0.69709525513835291

>  <XCos_RefMols>  (29) 
x1392_0,x0874_0

>  <XCos_NumHits>  (29) 
2

>  <XCos_Score1>  (29) 
13.2830

>  <XCos_Score2>  (29) 
0.3002

>  <XCos_Score3>  (29) 
0.0226

$$$$
C#CC1(O)CCN(Cc2ccccc2)CC1
     RDKit          3D

 16 17  0  0  0  0  0  0  0  0999 V2000
    8.9907   -1.5258   26.9544 C   0  0  0  0  0  0  0  0  0  0  0  0
    8.7625   -2.6266   26.5146 C   0  0  0  0  0  0  0  0  0  0  0  0
    8.4641   -3.9763   25.9633 C   0  0  0  0  0  0  0  0  0  0  0  0
    8.0767   -4.6005   27.1096 O   0  0  0  0  0  0  0  0  0  0  0  0
    9.7115   -4.6036   25.3600 C   0  0  0  0  0  0  0  0  0  0  0  0
   10.3100   -3.5945   24.3840 C   0  0  0  0  0  0  0  0  0  0  0  0
    9.2917   -2.7871   23.6605 N   0  0  0  0  0  0  0  0  0  0  0  0
    9.7396   -2.1261   22.4301 C   0  0  0  0  0  0  0  0  0  0  0  0
   10.9528   -1.2516   22.5871 C   0  0  0  0  0  0  0  0  0  0  0  0
   12.1099   -1.5171   21.8354 C   0  0  0  0  0  0  0  0  0  0  0  0
   13.2389   -0.7032   21.9678 C   0  0  0  0  0  0  0  0  0  0  0  0
   13.2224    0.3793   22.8515 C   0  0  0  0  0  0  0  0  0  0  0  0
   12.0767    0.6500   23.6045 C   0  0  0  0  0  0  0  0  0  0  0  0
   10.9450   -0.1610   23.4755 C   0  0  0  0  0  0  0  0  0  0  0  0
    7.9859   -3.4681   23.5020 C   0  0  0  0  0  0  0  0  0  0  0  0
    7.3749   -3.8591   24.8779 C   0  0  0  0  0  0  0  0  0  0  0  0
  1  2  3  0
  2  3  1  0
  3  4  1  0
  3  5  1  0
  5  6  1  0
  6  7  1  0
  7  8  1  0
  7 15  1  0
  8  9  1  0
  9 10  2  0
 10 11  1  0
 11 12  2  0
 12 13  1  0
 13 14  2  0
 14  9  1  0
 15 16  1  0
 16  3  1  0
M  END
>  <Hit>  (30) 
Mpro-x0387_0

>  <Receptor>  (30) 
Mpro-x1249_0

>  <SCORE>  (30) 
-10.9253

>  <SCORE.norm>  (30) 
-0.68283000000000005

>  <SCORE.heavy>  (30) 
16

>  <OrigSmiles>  (30) 
C#CC1(O)CCN(Cc2ccccc2)CC1

>  <SuCOS_Score>  (30) 
0.58632753396483339

>  <Max_SuCOS_Score>  (30) 
0

>  <Cum_SuCOS_Score>  (30) 
0

>  <TransFSScore_50nM>  (30) 
0.004437

>  <TransFSScore_1uM>  (30) 
0.085360000000000005

>  <TransFSScore_10nM>  (30) 
0.14444199999999999

>  <TransFSScore_200nM>  (30) 
0.23798800000000001

>  <TransFSScore>  (30) 
0.11805674999999999

>  <FeatureSteinScore>  (30) 
0.71053458179148454

>  <XCos_RefMols>  (30) 
x1392_0,x0874_0

>  <XCos_NumHits>  (30) 
2

>  <XCos_Score1>  (30) 
13.3859

>  <XCos_Score2>  (30) 
0.3025

>  <XCos_Score3>  (30) 
0.0226

$$$$
C#CC1(O)CCN(Cc2ccccc2)CC1
     RDKit          3D

 16 17  0  0  0  0  0  0  0  0999 V2000
    9.0550   -1.5067   26.9257 C   0  0  0  0  0  0  0  0  0  0  0  0
    8.8094   -2.6039   26.4866 C   0  0  0  0  0  0  0  0  0  0  0  0
    8.5105   -3.9648   25.9636 C   0  0  0  0  0  0  0  0  0  0  0  0
    8.1045   -4.5593   27.1193 O   0  0  0  0  0  0  0  0  0  0  0  0
    9.7620   -4.6131   25.3920 C   0  0  0  0  0  0  0  0  0  0  0  0
   10.3791   -3.6308   24.4003 C   0  0  0  0  0  0  0  0  0  0  0  0
    9.3750   -2.8354   23.6443 N   0  0  0  0  0  0  0  0  0  0  0  0
    9.8428   -2.2064   22.4046 C   0  0  0  0  0  0  0  0  0  0  0  0
   11.0390   -1.3090   22.5625 C   0  0  0  0  0  0  0  0  0  0  0  0
   12.1747   -1.5073   21.7592 C   0  0  0  0  0  0  0  0  0  0  0  0
   13.2873   -0.6713   21.8925 C   0  0  0  0  0  0  0  0  0  0  0  0
   13.2759    0.3664   22.8286 C   0  0  0  0  0  0  0  0  0  0  0  0
   12.1515    0.5701   23.6330 C   0  0  0  0  0  0  0  0  0  0  0  0
   11.0361   -0.2632   23.5034 C   0  0  0  0  0  0  0  0  0  0  0  0
    8.0675   -3.5129   23.4849 C   0  0  0  0  0  0  0  0  0  0  0  0
    7.4363   -3.8676   24.8614 C   0  0  0  0  0  0  0  0  0  0  0  0
  1  2  3  0
  2  3  1  0
  3  4  1  0
  3  5  1  0
  5  6  1  0
  6  7  1  0
  7  8  1  0
  7 15  1  0
  8  9  1  0
  9 10  2  0
 10 11  1  0
 11 12  2  0
 12 13  1  0
 13 14  2  0
 14  9  1  0
 15 16  1  0
 16  3  1  0
M  END
>  <Hit>  (31) 
Mpro-x0387_0

>  <Receptor>  (31) 
Mpro-x1249_0

>  <SCORE>  (31) 
-10.9488

>  <SCORE.norm>  (31) 
-0.68430199999999997

>  <SCORE.heavy>  (31) 
16

>  <OrigSmiles>  (31) 
C#CC1(O)CCN(Cc2ccccc2)CC1

>  <SuCOS_Score>  (31) 
0.59487119653793474

>  <Max_SuCOS_Score>  (31) 
0

>  <Cum_SuCOS_Score>  (31) 
0

>  <TransFSScore_50nM>  (31) 
0.0037910000000000001

>  <TransFSScore_1uM>  (31) 
0.080890000000000004

>  <TransFSScore_10nM>  (31) 
0.14240900000000001

>  <TransFSScore_200nM>  (31) 
0.219224

>  <TransFSScore>  (31) 
0.1115785

>  <FeatureSteinScore>  (31) 
0.68009855369360717

>  <XCos_RefMols>  (31) 
x1392_0,x0874_0

>  <XCos_NumHits>  (31) 
2

>  <XCos_Score1>  (31) 
13.2202

>  <XCos_Score2>  (31) 
0.2988

>  <XCos_Score3>  (31) 
0.0226

$$$$
C#CC1(O)CCN(Cc2ccccc2)CC1
     RDKit          3D

 16 17  0  0  0  0  0  0  0  0999 V2000
   10.6217   -5.1952   25.1643 C   0  0  0  0  0  0  0  0  0  0  0  0
    9.6367   -4.5009   25.2343 C   0  0  0  0  0  0  0  0  0  0  0  0
    8.4342   -3.6286   25.3242 C   0  0  0  0  0  0  0  0  0  0  0  0
    7.8358   -4.1918   26.4098 O   0  0  0  0  0  0  0  0  0  0  0  0
    7.5818   -3.7491   24.0703 C   0  0  0  0  0  0  0  0  0  0  0  0
    8.4934   -3.5180   22.8683 C   0  0  0  0  0  0  0  0  0  0  0  0
    9.5624   -2.5134   23.1139 N   0  0  0  0  0  0  0  0  0  0  0  0
   10.1887   -1.9258   21.9248 C   0  0  0  0  0  0  0  0  0  0  0  0
   11.4751   -1.1916   22.1846 C   0  0  0  0  0  0  0  0  0  0  0  0
   11.4566    0.0311   22.8767 C   0  0  0  0  0  0  0  0  0  0  0  0
   12.6490    0.7153   23.1313 C   0  0  0  0  0  0  0  0  0  0  0  0
   13.8670    0.1863   22.6960 C   0  0  0  0  0  0  0  0  0  0  0  0
   13.8949   -1.0283   22.0053 C   0  0  0  0  0  0  0  0  0  0  0  0
   12.7052   -1.7165   21.7485 C   0  0  0  0  0  0  0  0  0  0  0  0
    9.2124   -1.5006   24.1365 C   0  0  0  0  0  0  0  0  0  0  0  0
    8.8754   -2.1618   25.5034 C   0  0  0  0  0  0  0  0  0  0  0  0
  1  2  3  0
  2  3  1  0
  3  4  1  0
  3  5  1  0
  5  6  1  0
  6  7  1  0
  7  8  1  0
  7 15  1  0
  8  9  1  0
  9 10  2  0
 10 11  1  0
 11 12  2  0
 12 13  1  0
 13 14  2  0
 14  9  1  0
 15 16  1  0
 16  3  1  0
M  END
>  <Hit>  (32) 
Mpro-x0387_0

>  <Receptor>  (32) 
Mpro-x0874_0

>  <SCORE>  (32) 
-11.3012

>  <SCORE.norm>  (32) 
-0.70632600000000001

>  <SCORE.heavy>  (32) 
16

>  <OrigSmiles>  (32) 
C#CC1(O)CCN(Cc2ccccc2)CC1

>  <SuCOS_Score>  (32) 
0.45737402517238962

>  <Max_SuCOS_Score>  (32) 
0

>  <Cum_SuCOS_Score>  (32) 
0

>  <TransFSScore_50nM>  (32) 
0.0035100000000000001

>  <TransFSScore_1uM>  (32) 
0.16220200000000001

>  <TransFSScore_10nM>  (32) 
0.21173400000000001

>  <TransFSScore_200nM>  (32) 
0.084456000000000003

>  <TransFSScore>  (32) 
0.11547550000000001

>  <FeatureSteinScore>  (32) 
0.54435710639564727

>  <XCos_RefMols>  (32) 
x1392_0,x0874_0

>  <XCos_NumHits>  (32) 
2

>  <XCos_Score1>  (32) 
11.9971

>  <XCos_Score2>  (32) 
0.0678

>  <XCos_Score3>  (32) 
0.0056

$$$$
C#CC1(O)CCN(Cc2ccccc2)CC1
     RDKit          3D

 16 17  0  0  0  0  0  0  0  0999 V2000
   10.5515   -5.1446   25.0474 C   0  0  0  0  0  0  0  0  0  0  0  0
    9.6203   -4.3915   25.1981 C   0  0  0  0  0  0  0  0  0  0  0  0
    8.4684   -3.4638   25.3639 C   0  0  0  0  0  0  0  0  0  0  0  0
    7.8976   -4.0186   26.4685 O   0  0  0  0  0  0  0  0  0  0  0  0
    7.5498   -3.5181   24.1528 C   0  0  0  0  0  0  0  0  0  0  0  0
    8.4108   -3.3078   22.9104 C   0  0  0  0  0  0  0  0  0  0  0  0
    9.5390   -2.3612   23.1189 N   0  0  0  0  0  0  0  0  0  0  0  0
   10.1338   -1.7813   21.9100 C   0  0  0  0  0  0  0  0  0  0  0  0
   11.4652   -1.1139   22.1173 C   0  0  0  0  0  0  0  0  0  0  0  0
   11.5301    0.1387   22.7508 C   0  0  0  0  0  0  0  0  0  0  0  0
   12.7646    0.7616   22.9566 C   0  0  0  0  0  0  0  0  0  0  0  0
   13.9421    0.1412   22.5306 C   0  0  0  0  0  0  0  0  0  0  0  0
   13.8872   -1.1038   21.8981 C   0  0  0  0  0  0  0  0  0  0  0  0
   12.6550   -1.7310   21.6902 C   0  0  0  0  0  0  0  0  0  0  0  0
    9.2908   -1.3531   24.1753 C   0  0  0  0  0  0  0  0  0  0  0  0
    8.9898   -2.0240   25.5458 C   0  0  0  0  0  0  0  0  0  0  0  0
  1  2  3  0
  2  3  1  0
  3  4  1  0
  3  5  1  0
  5  6  1  0
  6  7  1  0
  7  8  1  0
  7 15  1  0
  8  9  1  0
  9 10  2  0
 10 11  1  0
 11 12  2  0
 12 13  1  0
 13 14  2  0
 14  9  1  0
 15 16  1  0
 16  3  1  0
M  END
>  <Hit>  (33) 
Mpro-x0387_0

>  <Receptor>  (33) 
Mpro-x0874_0

>  <SCORE>  (33) 
-11.482799999999999

>  <SCORE.norm>  (33) 
-0.71767400000000003

>  <SCORE.heavy>  (33) 
16

>  <OrigSmiles>  (33) 
C#CC1(O)CCN(Cc2ccccc2)CC1

>  <SuCOS_Score>  (33) 
0.43359842174983132

>  <Max_SuCOS_Score>  (33) 
0

>  <Cum_SuCOS_Score>  (33) 
0

>  <TransFSScore_50nM>  (33) 
0.0041289999999999999

>  <TransFSScore_1uM>  (33) 
0.182559

>  <TransFSScore_10nM>  (33) 
0.24860699999999999

>  <TransFSScore_200nM>  (33) 
0.085439000000000001

>  <TransFSScore>  (33) 
0.13018350000000001

>  <FeatureSteinScore>  (33) 
0.52084350334633334

>  <XCos_RefMols>  (33) 
x1392_0,x0874_0

>  <XCos_NumHits>  (33) 
2

>  <XCos_Score1>  (33) 
11.8437

>  <XCos_Score2>  (33) 
0.0000

>  <XCos_Score3>  (33) 
0.0000

$$$$
C#CC1(O)CCN(Cc2ccccc2)CC1
     RDKit          3D

 16 17  0  0  0  0  0  0  0  0999 V2000
    9.6479   -2.2205   27.9949 C   0  0  0  0  0  0  0  0  0  0  0  0
    9.5098   -3.3681   27.6472 C   0  0  0  0  0  0  0  0  0  0  0  0
    9.3591   -4.7835   27.2124 C   0  0  0  0  0  0  0  0  0  0  0  0
    9.2028   -5.3713   28.4305 O   0  0  0  0  0  0  0  0  0  0  0  0
   10.6109   -5.2671   26.4966 C   0  0  0  0  0  0  0  0  0  0  0  0
   10.9354   -4.2564   25.4001 C   0  0  0  0  0  0  0  0  0  0  0  0
    9.7314   -3.6591   24.7631 N   0  0  0  0  0  0  0  0  0  0  0  0
    9.9320   -3.0322   23.4523 C   0  0  0  0  0  0  0  0  0  0  0  0
   11.0351   -2.0117   23.4010 C   0  0  0  0  0  0  0  0  0  0  0  0
   12.0175   -2.0914   22.3995 C   0  0  0  0  0  0  0  0  0  0  0  0
   13.0409   -1.1409   22.3385 C   0  0  0  0  0  0  0  0  0  0  0  0
   13.0930   -0.1062   23.2764 C   0  0  0  0  0  0  0  0  0  0  0  0
   12.1214   -0.0199   24.2770 C   0  0  0  0  0  0  0  0  0  0  0  0
   11.0956   -0.9679   24.3422 C   0  0  0  0  0  0  0  0  0  0  0  0
    8.5345   -4.5307   24.8040 C   0  0  0  0  0  0  0  0  0  0  0  0
    8.1491   -4.9038   26.2639 C   0  0  0  0  0  0  0  0  0  0  0  0
  1  2  3  0
  2  3  1  0
  3  4  1  0
  3  5  1  0
  5  6  1  0
  6  7  1  0
  7  8  1  0
  7 15  1  0
  8  9  1  0
  9 10  2  0
 10 11  1  0
 11 12  2  0
 12 13  1  0
 13 14  2  0
 14  9  1  0
 15 16  1  0
 16  3  1  0
M  END
>  <Hit>  (34) 
Mpro-x0387_0

>  <Receptor>  (34) 
Mpro-x0387_0

>  <SCORE>  (34) 
-11.4834

>  <SCORE.norm>  (34) 
-0.71770999999999996

>  <SCORE.heavy>  (34) 
16

>  <OrigSmiles>  (34) 
C#CC1(O)CCN(Cc2ccccc2)CC1

>  <SuCOS_Score>  (34) 
0.72728723170851572

>  <Max_SuCOS_Score>  (34) 
0

>  <Cum_SuCOS_Score>  (34) 
0

>  <TransFSScore_50nM>  (34) 
0.0024589999999999998

>  <TransFSScore_1uM>  (34) 
0.075306999999999999

>  <TransFSScore_10nM>  (34) 
0.061225000000000002

>  <TransFSScore_200nM>  (34) 
0.17221600000000001

>  <TransFSScore>  (34) 
0.077801750000000003

>  <FeatureSteinScore>  (34) 
0.30992293808724314

>  <XCos_RefMols>  (34) 
x0387_0,x1392_0

>  <XCos_NumHits>  (34) 
2

>  <XCos_Score1>  (34) 
11.4567

>  <XCos_Score2>  (34) 
0.1295

>  <XCos_Score3>  (34) 
0.0113

$$$$
C#CC1(O)CCN(Cc2ccccc2)CC1
     RDKit          3D

 16 17  0  0  0  0  0  0  0  0999 V2000
    8.0942   -4.7855   27.7177 C   0  0  0  0  0  0  0  0  0  0  0  0
    8.7067   -5.2713   26.7979 C   0  0  0  0  0  0  0  0  0  0  0  0
    9.4579   -5.8536   25.6527 C   0  0  0  0  0  0  0  0  0  0  0  0
    9.4539   -7.1616   26.0305 O   0  0  0  0  0  0  0  0  0  0  0  0
   10.8647   -5.2803   25.5793 C   0  0  0  0  0  0  0  0  0  0  0  0
   10.7452   -3.7590   25.6030 C   0  0  0  0  0  0  0  0  0  0  0  0
    9.5452   -3.2430   24.8915 N   0  0  0  0  0  0  0  0  0  0  0  0
    9.5790   -1.8302   24.4988 C   0  0  0  0  0  0  0  0  0  0  0  0
   10.8533   -1.3885   23.8338 C   0  0  0  0  0  0  0  0  0  0  0  0
   11.3067   -2.0490   22.6794 C   0  0  0  0  0  0  0  0  0  0  0  0
   12.4851   -1.6384   22.0491 C   0  0  0  0  0  0  0  0  0  0  0  0
   13.2201   -0.5682   22.5663 C   0  0  0  0  0  0  0  0  0  0  0  0
   12.7778    0.0936   23.7149 C   0  0  0  0  0  0  0  0  0  0  0  0
   11.5997   -0.3132   24.3489 C   0  0  0  0  0  0  0  0  0  0  0  0
    9.0630   -4.1279   23.8059 C   0  0  0  0  0  0  0  0  0  0  0  0
    8.7114   -5.5462   24.3387 C   0  0  0  0  0  0  0  0  0  0  0  0
  1  2  3  0
  2  3  1  0
  3  4  1  0
  3  5  1  0
  5  6  1  0
  6  7  1  0
  7  8  1  0
  7 15  1  0
  8  9  1  0
  9 10  2  0
 10 11  1  0
 11 12  2  0
 12 13  1  0
 13 14  2  0
 14  9  1  0
 15 16  1  0
 16  3  1  0
M  END
>  <Hit>  (35) 
Mpro-x0387_0

>  <Receptor>  (35) 
Mpro-x0387_0

>  <SCORE>  (35) 
-11.4963

>  <SCORE.norm>  (35) 
-0.71851900000000002

>  <SCORE.heavy>  (35) 
16

>  <OrigSmiles>  (35) 
C#CC1(O)CCN(Cc2ccccc2)CC1

>  <SuCOS_Score>  (35) 
0.73271261759000972

>  <Max_SuCOS_Score>  (35) 
0

>  <Cum_SuCOS_Score>  (35) 
0

>  <TransFSScore_50nM>  (35) 
0.011677999999999999

>  <TransFSScore_1uM>  (35) 
0.090005000000000002

>  <TransFSScore_10nM>  (35) 
0.072511000000000006

>  <TransFSScore_200nM>  (35) 
0.12239899999999999

>  <TransFSScore>  (35) 
0.074148249999999999

>  <FeatureSteinScore>  (35) 
0.5620205527252562

>  <XCos_RefMols>  (35) 
x0387_0,x0072_0

>  <XCos_NumHits>  (35) 
2

>  <XCos_Score1>  (35) 
13.0240

>  <XCos_Score2>  (35) 
0.2207

>  <XCos_Score3>  (35) 
0.0169

$$$$
C#CC1(O)CCN(Cc2ccccc2)CC1
     RDKit          3D

 16 17  0  0  0  0  0  0  0  0999 V2000
   10.6112   -5.1980   25.0711 C   0  0  0  0  0  0  0  0  0  0  0  0
    9.6795   -4.4434   25.2111 C   0  0  0  0  0  0  0  0  0  0  0  0
    8.5295   -3.5111   25.3634 C   0  0  0  0  0  0  0  0  0  0  0  0
    7.9431   -4.0640   26.4607 O   0  0  0  0  0  0  0  0  0  0  0  0
    7.6254   -3.5610   24.1413 C   0  0  0  0  0  0  0  0  0  0  0  0
    8.5022   -3.3537   22.9095 C   0  0  0  0  0  0  0  0  0  0  0  0
    9.6318   -2.4119   23.1321 N   0  0  0  0  0  0  0  0  0  0  0  0
   10.2434   -1.8340   21.9307 C   0  0  0  0  0  0  0  0  0  0  0  0
   11.5578   -1.1406   22.1609 C   0  0  0  0  0  0  0  0  0  0  0  0
   11.5892    0.1020   22.8161 C   0  0  0  0  0  0  0  0  0  0  0  0
   12.8077    0.7488   23.0431 C   0  0  0  0  0  0  0  0  0  0  0  0
   14.0024    0.1623   22.6168 C   0  0  0  0  0  0  0  0  0  0  0  0
   13.9807   -1.0725   21.9627 C   0  0  0  0  0  0  0  0  0  0  0  0
   12.7646   -1.7235   21.7336 C   0  0  0  0  0  0  0  0  0  0  0  0
    9.3750   -1.4032   24.1859 C   0  0  0  0  0  0  0  0  0  0  0  0
    9.0547   -2.0735   25.5524 C   0  0  0  0  0  0  0  0  0  0  0  0
  1  2  3  0
  2  3  1  0
  3  4  1  0
  3  5  1  0
  5  6  1  0
  6  7  1  0
  7  8  1  0
  7 15  1  0
  8  9  1  0
  9 10  2  0
 10 11  1  0
 11 12  2  0
 12 13  1  0
 13 14  2  0
 14  9  1  0
 15 16  1  0
 16  3  1  0
M  END
>  <Hit>  (36) 
Mpro-x0387_0

>  <Receptor>  (36) 
Mpro-x0874_0

>  <SCORE>  (36) 
-11.5618

>  <SCORE.norm>  (36) 
-0.72261299999999995

>  <SCORE.heavy>  (36) 
16

>  <OrigSmiles>  (36) 
C#CC1(O)CCN(Cc2ccccc2)CC1

>  <SuCOS_Score>  (36) 
0.44531100550567987

>  <Max_SuCOS_Score>  (36) 
0

>  <Cum_SuCOS_Score>  (36) 
0

>  <TransFSScore_50nM>  (36) 
0.0037360000000000002

>  <TransFSScore_1uM>  (36) 
0.15864600000000001

>  <TransFSScore_10nM>  (36) 
0.221003

>  <TransFSScore_200nM>  (36) 
0.079131999999999994

>  <TransFSScore>  (36) 
0.11562924999999999

>  <FeatureSteinScore>  (36) 
0.50875232704315709

>  <XCos_RefMols>  (36) 
x1392_0,x0874_0

>  <XCos_NumHits>  (36) 
2

>  <XCos_Score1>  (36) 
11.5845

>  <XCos_Score2>  (36) 
0.0654

>  <XCos_Score3>  (36) 
0.0056

$$$$
C#CC1(O)CCN(Cc2ccccn2)CC1
     RDKit          3D

 16 17  0  0  0  0  0  0  0  0999 V2000
    8.1172   -2.4859   26.8538 C   0  0  0  0  0  0  0  0  0  0  0  0
    8.4391   -3.4754   26.2428 C   0  0  0  0  0  0  0  0  0  0  0  0
    8.8456   -4.7063   25.4908 C   0  0  0  0  0  0  0  0  0  0  0  0
    8.7586   -5.6804   26.4515 O   0  0  0  0  0  0  0  0  0  0  0  0
   10.2447   -4.6277   24.8953 C   0  0  0  0  0  0  0  0  0  0  0  0
   10.3464   -3.2659   24.2733 C   0  0  0  0  0  0  0  0  0  0  0  0
    9.3436   -3.0749   23.1981 N   0  0  0  0  0  0  0  0  0  0  0  0
    9.2323   -1.6435   22.9032 C   0  0  0  0  0  0  0  0  0  0  0  0
   10.6051   -1.0445   22.7311 C   0  0  0  0  0  0  0  0  0  0  0  0
   11.1539   -0.2261   23.7318 C   0  0  0  0  0  0  0  0  0  0  0  0
   12.4305    0.3093   23.5581 C   0  0  0  0  0  0  0  0  0  0  0  0
   13.1473    0.0310   22.3948 C   0  0  0  0  0  0  0  0  0  0  0  0
   12.5728   -0.7820   21.4161 C   0  0  0  0  0  0  0  0  0  0  0  0
   11.3263   -1.2983   21.5987 N   0  0  0  0  0  0  0  0  0  0  0  0
    7.9838   -3.6729   23.3628 C   0  0  0  0  0  0  0  0  0  0  0  0
    7.8689   -4.8636   24.3436 C   0  0  0  0  0  0  0  0  0  0  0  0
  1  2  3  0
  2  3  1  0
  3  4  1  0
  3  5  1  0
  5  6  1  0
  6  7  1  0
  7  8  1  0
  7 15  1  0
  8  9  1  0
  9 10  2  0
 10 11  1  0
 11 12  2  0
 12 13  1  0
 13 14  2  0
 14  9  1  0
 15 16  1  0
 16  3  1  0
M  END
>  <Hit>  (37) 
Mpro-x0387_0

>  <Receptor>  (37) 
Mpro-x1249_0

>  <SCORE>  (37) 
-10.670299999999999

>  <SCORE.norm>  (37) 
-0.66689500000000002

>  <SCORE.heavy>  (37) 
16

>  <OrigSmiles>  (37) 
C#CC1(O)CCN(Cc2ccccn2)CC1

>  <SuCOS_Score>  (37) 
0.4388444788056699

>  <Max_SuCOS_Score>  (37) 
0

>  <Cum_SuCOS_Score>  (37) 
0

>  <TransFSScore_50nM>  (37) 
0.0040569999999999998

>  <TransFSScore_1uM>  (37) 
0.024381

>  <TransFSScore_10nM>  (37) 
0.012104999999999999

>  <TransFSScore_200nM>  (37) 
0.063538999999999998

>  <TransFSScore>  (37) 
0.026020499999999998

>  <FeatureSteinScore>  (37) 
0.67205715211324102

>  <XCos_RefMols>  (37) 
x0072_0,x0874_0,x0774_0

>  <XCos_NumHits>  (37) 
3

>  <XCos_Score1>  (37) 
12.7158

>  <XCos_Score2>  (37) 
0.3592

>  <XCos_Score3>  (37) 
0.0282

$$$$
C#CC1(O)CCN(Cc2ccccn2)CC1
     RDKit          3D

 16 17  0  0  0  0  0  0  0  0999 V2000
    7.7750   -2.6453   26.7040 C   0  0  0  0  0  0  0  0  0  0  0  0
    8.2129   -3.6016   26.1126 C   0  0  0  0  0  0  0  0  0  0  0  0
    8.7481   -4.7910   25.3744 C   0  0  0  0  0  0  0  0  0  0  0  0
    8.6329   -5.7912   26.3047 O   0  0  0  0  0  0  0  0  0  0  0  0
   10.1863   -4.6247   24.9032 C   0  0  0  0  0  0  0  0  0  0  0  0
   10.2664   -3.2448   24.3190 C   0  0  0  0  0  0  0  0  0  0  0  0
    9.3496   -3.0807   23.1655 N   0  0  0  0  0  0  0  0  0  0  0  0
    9.1861   -1.6504   22.8901 C   0  0  0  0  0  0  0  0  0  0  0  0
   10.5356   -0.9817   22.8198 C   0  0  0  0  0  0  0  0  0  0  0  0
   10.9927   -0.1900   23.8858 C   0  0  0  0  0  0  0  0  0  0  0  0
   12.2493    0.4110   23.8057 C   0  0  0  0  0  0  0  0  0  0  0  0
   13.0368    0.2240   22.6702 C   0  0  0  0  0  0  0  0  0  0  0  0
   12.5526   -0.5645   21.6250 C   0  0  0  0  0  0  0  0  0  0  0  0
   11.3247   -1.1455   21.7165 N   0  0  0  0  0  0  0  0  0  0  0  0
    8.0152   -3.7530   23.2007 C   0  0  0  0  0  0  0  0  0  0  0  0
    7.8823   -4.9715   24.1445 C   0  0  0  0  0  0  0  0  0  0  0  0
  1  2  3  0
  2  3  1  0
  3  4  1  0
  3  5  1  0
  5  6  1  0
  6  7  1  0
  7  8  1  0
  7 15  1  0
  8  9  1  0
  9 10  2  0
 10 11  1  0
 11 12  2  0
 12 13  1  0
 13 14  2  0
 14  9  1  0
 15 16  1  0
 16  3  1  0
M  END
>  <Hit>  (38) 
Mpro-x0387_0

>  <Receptor>  (38) 
Mpro-x1249_0

>  <SCORE>  (38) 
-10.8109

>  <SCORE.norm>  (38) 
-0.67567999999999995

>  <SCORE.heavy>  (38) 
16

>  <OrigSmiles>  (38) 
C#CC1(O)CCN(Cc2ccccn2)CC1

>  <SuCOS_Score>  (38) 
0.42230784193122578

>  <Max_SuCOS_Score>  (38) 
0

>  <Cum_SuCOS_Score>  (38) 
0

>  <TransFSScore_50nM>  (38) 
0.0042129999999999997

>  <TransFSScore_1uM>  (38) 
0.024178000000000002

>  <TransFSScore_10nM>  (38) 
0.014107

>  <TransFSScore_200nM>  (38) 
0.044861999999999999

>  <TransFSScore>  (38) 
0.021839999999999998

>  <FeatureSteinScore>  (38) 
0.69954688550853805

>  <XCos_RefMols>  (38) 
x0708_0,x0874_0,x0774_0

>  <XCos_NumHits>  (38) 
3

>  <XCos_Score1>  (38) 
12.6740

>  <XCos_Score2>  (38) 
0.3580

>  <XCos_Score3>  (38) 
0.0282

$$$$
C#CC1(O)CCN(Cc2ccccn2)CC1
     RDKit          3D

 16 17  0  0  0  0  0  0  0  0999 V2000
    7.6972   -6.0591   27.2859 C   0  0  0  0  0  0  0  0  0  0  0  0
    8.2721   -5.6775   26.2970 C   0  0  0  0  0  0  0  0  0  0  0  0
    8.9774   -5.2091   25.0825 C   0  0  0  0  0  0  0  0  0  0  0  0
    9.5670   -6.3177   24.4461 O   0  0  0  0  0  0  0  0  0  0  0  0
    7.9534   -4.5628   24.1380 C   0  0  0  0  0  0  0  0  0  0  0  0
    8.6218   -3.8028   22.9919 C   0  0  0  0  0  0  0  0  0  0  0  0
    9.7127   -2.8981   23.4423 N   0  0  0  0  0  0  0  0  0  0  0  0
    9.9109   -1.6261   22.7182 C   0  0  0  0  0  0  0  0  0  0  0  0
   11.3276   -1.1466   22.6314 C   0  0  0  0  0  0  0  0  0  0  0  0
   11.7009    0.0769   23.2079 C   0  0  0  0  0  0  0  0  0  0  0  0
   13.0207    0.5159   23.0861 C   0  0  0  0  0  0  0  0  0  0  0  0
   13.9502   -0.2610   22.3925 C   0  0  0  0  0  0  0  0  0  0  0  0
   13.5426   -1.4711   21.8264 C   0  0  0  0  0  0  0  0  0  0  0  0
   12.2526   -1.8827   21.9538 N   0  0  0  0  0  0  0  0  0  0  0  0
    9.8903   -2.7982   24.9005 C   0  0  0  0  0  0  0  0  0  0  0  0
   10.0920   -4.2076   25.4902 C   0  0  0  0  0  0  0  0  0  0  0  0
  1  2  3  0
  2  3  1  0
  3  4  1  0
  3  5  1  0
  5  6  1  0
  6  7  1  0
  7  8  1  0
  7 15  1  0
  8  9  1  0
  9 10  2  0
 10 11  1  0
 11 12  2  0
 12 13  1  0
 13 14  2  0
 14  9  1  0
 15 16  1  0
 16  3  1  0
M  END
>  <Hit>  (39) 
Mpro-x0387_0

>  <Receptor>  (39) 
Mpro-x0305_0

>  <SCORE>  (39) 
-11.473699999999999

>  <SCORE.norm>  (39) 
-0.71710700000000005

>  <SCORE.heavy>  (39) 
16

>  <OrigSmiles>  (39) 
C#CC1(O)CCN(Cc2ccccn2)CC1

>  <SuCOS_Score>  (39) 
0.46040050284585288

>  <Max_SuCOS_Score>  (39) 
0

>  <Cum_SuCOS_Score>  (39) 
0

>  <TransFSScore_50nM>  (39) 
0.0064200000000000004

>  <TransFSScore_1uM>  (39) 
0.025613

>  <TransFSScore_10nM>  (39) 
0.0062779999999999997

>  <TransFSScore_200nM>  (39) 
0.056737999999999997

>  <TransFSScore>  (39) 
0.023762249999999999

>  <FeatureSteinScore>  (39) 
0.33054187258301265

>  <XCos_RefMols>  (39) 
x1392_0,x0874_0

>  <XCos_NumHits>  (39) 
2

>  <XCos_Score1>  (39) 
11.7794

>  <XCos_Score2>  (39) 
0.0666

>  <XCos_Score3>  (39) 
0.0056

$$$$
C#CC1(O)CCN(Cc2ccccn2)CC1
     RDKit          3D

 16 17  0  0  0  0  0  0  0  0999 V2000
    7.7278   -6.0406   27.2981 C   0  0  0  0  0  0  0  0  0  0  0  0
    8.3001   -5.6752   26.3016 C   0  0  0  0  0  0  0  0  0  0  0  0
    9.0031   -5.2261   25.0785 C   0  0  0  0  0  0  0  0  0  0  0  0
    9.5835   -6.3461   24.4536 O   0  0  0  0  0  0  0  0  0  0  0  0
    7.9792   -4.5855   24.1301 C   0  0  0  0  0  0  0  0  0  0  0  0
    8.6473   -3.8438   22.9720 C   0  0  0  0  0  0  0  0  0  0  0  0
    9.7454   -2.9402   23.4067 N   0  0  0  0  0  0  0  0  0  0  0  0
    9.9482   -1.6785   22.6660 C   0  0  0  0  0  0  0  0  0  0  0  0
   11.3603   -1.1808   22.6129 C   0  0  0  0  0  0  0  0  0  0  0  0
   11.7070    0.0400   23.2110 C   0  0  0  0  0  0  0  0  0  0  0  0
   13.0234    0.4965   23.1205 C   0  0  0  0  0  0  0  0  0  0  0  0
   13.9760   -0.2607   22.4364 C   0  0  0  0  0  0  0  0  0  0  0  0
   13.5946   -1.4687   21.8481 C   0  0  0  0  0  0  0  0  0  0  0  0
   12.3075   -1.8974   21.9451 N   0  0  0  0  0  0  0  0  0  0  0  0
    9.9297   -2.8232   24.8627 C   0  0  0  0  0  0  0  0  0  0  0  0
   10.1254   -4.2264   25.4691 C   0  0  0  0  0  0  0  0  0  0  0  0
  1  2  3  0
  2  3  1  0
  3  4  1  0
  3  5  1  0
  5  6  1  0
  6  7  1  0
  7  8  1  0
  7 15  1  0
  8  9  1  0
  9 10  2  0
 10 11  1  0
 11 12  2  0
 12 13  1  0
 13 14  2  0
 14  9  1  0
 15 16  1  0
 16  3  1  0
M  END
>  <Hit>  (40) 
Mpro-x0387_0

>  <Receptor>  (40) 
Mpro-x0305_0

>  <SCORE>  (40) 
-11.478999999999999

>  <SCORE.norm>  (40) 
-0.71743599999999996

>  <SCORE.heavy>  (40) 
16

>  <OrigSmiles>  (40) 
C#CC1(O)CCN(Cc2ccccn2)CC1

>  <SuCOS_Score>  (40) 
0.45565912171469125

>  <Max_SuCOS_Score>  (40) 
0

>  <Cum_SuCOS_Score>  (40) 
0

>  <TransFSScore_50nM>  (40) 
0.0062579999999999997

>  <TransFSScore_1uM>  (40) 
0.026065000000000001

>  <TransFSScore_10nM>  (40) 
0.0058669999999999998

>  <TransFSScore_200nM>  (40) 
0.054077

>  <TransFSScore>  (40) 
0.02306675

>  <FeatureSteinScore>  (40) 
0.31789965720662655

>  <XCos_RefMols>  (40) 
x1392_0,x0874_0

>  <XCos_NumHits>  (40) 
2

>  <XCos_Score1>  (40) 
11.7182

>  <XCos_Score2>  (40) 
0.0000

>  <XCos_Score3>  (40) 
0.0000

$$$$
C#CC1(O)CCN(Cc2ccccn2)CC1
     RDKit          3D

 16 17  0  0  0  0  0  0  0  0999 V2000
    7.7587   -6.1000   27.3059 C   0  0  0  0  0  0  0  0  0  0  0  0
    8.3221   -5.7165   26.3111 C   0  0  0  0  0  0  0  0  0  0  0  0
    9.0135   -5.2450   25.0898 C   0  0  0  0  0  0  0  0  0  0  0  0
    9.5949   -6.3522   24.4435 O   0  0  0  0  0  0  0  0  0  0  0  0
    7.9791   -4.5954   24.1592 C   0  0  0  0  0  0  0  0  0  0  0  0
    8.6346   -3.8325   23.0075 C   0  0  0  0  0  0  0  0  0  0  0  0
    9.7313   -2.9298   23.4478 N   0  0  0  0  0  0  0  0  0  0  0  0
    9.9220   -1.6559   22.7251 C   0  0  0  0  0  0  0  0  0  0  0  0
   11.3360   -1.1686   22.6375 C   0  0  0  0  0  0  0  0  0  0  0  0
   11.7072    0.0474   23.2307 C   0  0  0  0  0  0  0  0  0  0  0  0
   13.0243    0.4943   23.1080 C   0  0  0  0  0  0  0  0  0  0  0  0
   13.9532   -0.2676   22.3971 C   0  0  0  0  0  0  0  0  0  0  0  0
   13.5476   -1.4706   21.8147 C   0  0  0  0  0  0  0  0  0  0  0  0
   12.2603   -1.8900   21.9432 N   0  0  0  0  0  0  0  0  0  0  0  0
    9.9260   -2.8342   24.9041 C   0  0  0  0  0  0  0  0  0  0  0  0
   10.1336   -4.2455   25.4873 C   0  0  0  0  0  0  0  0  0  0  0  0
  1  2  3  0
  2  3  1  0
  3  4  1  0
  3  5  1  0
  5  6  1  0
  6  7  1  0
  7  8  1  0
  7 15  1  0
  8  9  1  0
  9 10  2  0
 10 11  1  0
 11 12  2  0
 12 13  1  0
 13 14  2  0
 14  9  1  0
 15 16  1  0
 16  3  1  0
M  END
>  <Hit>  (41) 
Mpro-x0387_0

>  <Receptor>  (41) 
Mpro-x0305_0

>  <SCORE>  (41) 
-11.48

>  <SCORE.norm>  (41) 
-0.71750000000000003

>  <SCORE.heavy>  (41) 
16

>  <OrigSmiles>  (41) 
C#CC1(O)CCN(Cc2ccccn2)CC1

>  <SuCOS_Score>  (41) 
0.4607328949242373

>  <Max_SuCOS_Score>  (41) 
0

>  <Cum_SuCOS_Score>  (41) 
0

>  <TransFSScore_50nM>  (41) 
0.0065399999999999998

>  <TransFSScore_1uM>  (41) 
0.025496999999999999

>  <TransFSScore_10nM>  (41) 
0.0060159999999999996

>  <TransFSScore_200nM>  (41) 
0.055725999999999998

>  <TransFSScore>  (41) 
0.02344475

>  <FeatureSteinScore>  (41) 
0.32468984700661918

>  <XCos_RefMols>  (41) 
x1392_0,x0874_0

>  <XCos_NumHits>  (41) 
2

>  <XCos_Score1>  (41) 
11.7374

>  <XCos_Score2>  (41) 
0.0663

>  <XCos_Score3>  (41) 
0.0056

$$$$
C#CC1(O)CCN(Cc2ccccn2)CC1
     RDKit          3D

 16 17  0  0  0  0  0  0  0  0999 V2000
    8.2200   -5.6959   28.6077 C   0  0  0  0  0  0  0  0  0  0  0  0
    8.6814   -5.5391   27.5046 C   0  0  0  0  0  0  0  0  0  0  0  0
    9.2477   -5.3473   26.1502 C   0  0  0  0  0  0  0  0  0  0  0  0
    9.7162   -6.5873   25.6763 O   0  0  0  0  0  0  0  0  0  0  0  0
    8.1382   -4.8317   25.2221 C   0  0  0  0  0  0  0  0  0  0  0  0
    8.6862   -4.3390   23.8824 C   0  0  0  0  0  0  0  0  0  0  0  0
    9.8547   -3.4299   24.0226 N   0  0  0  0  0  0  0  0  0  0  0  0
   10.0059   -2.3294   23.0492 C   0  0  0  0  0  0  0  0  0  0  0  0
   11.3738   -1.7237   22.9668 C   0  0  0  0  0  0  0  0  0  0  0  0
   11.6804   -0.5590   23.6864 C   0  0  0  0  0  0  0  0  0  0  0  0
   12.9531    0.0029   23.5681 C   0  0  0  0  0  0  0  0  0  0  0  0
   13.9019   -0.5946   22.7365 C   0  0  0  0  0  0  0  0  0  0  0  0
   13.5606   -1.7504   22.0305 C   0  0  0  0  0  0  0  0  0  0  0  0
   12.3158   -2.2834   22.1568 N   0  0  0  0  0  0  0  0  0  0  0  0
   10.2136   -3.0692   25.4042 C   0  0  0  0  0  0  0  0  0  0  0  0
   10.4378   -4.3526   26.2274 C   0  0  0  0  0  0  0  0  0  0  0  0
  1  2  3  0
  2  3  1  0
  3  4  1  0
  3  5  1  0
  5  6  1  0
  6  7  1  0
  7  8  1  0
  7 15  1  0
  8  9  1  0
  9 10  2  0
 10 11  1  0
 11 12  2  0
 12 13  1  0
 13 14  2  0
 14  9  1  0
 15 16  1  0
 16  3  1  0
M  END
>  <Hit>  (42) 
Mpro-x0387_0

>  <Receptor>  (42) 
Mpro-x0387_0

>  <SCORE>  (42) 
-11.9596

>  <SCORE.norm>  (42) 
-0.74747300000000005

>  <SCORE.heavy>  (42) 
16

>  <OrigSmiles>  (42) 
C#CC1(O)CCN(Cc2ccccn2)CC1

>  <SuCOS_Score>  (42) 
0.55373785717451063

>  <Max_SuCOS_Score>  (42) 
0

>  <Cum_SuCOS_Score>  (42) 
0

>  <TransFSScore_50nM>  (42) 
0.0084869999999999998

>  <TransFSScore_1uM>  (42) 
0.031732000000000003

>  <TransFSScore_10nM>  (42) 
0.0026329999999999999

>  <TransFSScore_200nM>  (42) 
0.098123000000000002

>  <TransFSScore>  (42) 
0.035243750000000004

>  <FeatureSteinScore>  (42) 
0.4175959951605962

>  <XCos_RefMols>  (42) 
x1392_0,x0387_0,x1385_0

>  <XCos_NumHits>  (42) 
3

>  <XCos_Score1>  (42) 
11.7017

>  <XCos_Score2>  (42) 
0.0661

>  <XCos_Score3>  (42) 
0.0056

$$$$
C#CC1(O)CCN(Cc2ccccn2)CC1
     RDKit          3D

 16 17  0  0  0  0  0  0  0  0999 V2000
    8.0068   -5.8517   28.4290 C   0  0  0  0  0  0  0  0  0  0  0  0
    8.5446   -5.6514   27.3684 C   0  0  0  0  0  0  0  0  0  0  0  0
    9.2049   -5.4062   26.0663 C   0  0  0  0  0  0  0  0  0  0  0  0
    9.7874   -6.6080   25.6213 O   0  0  0  0  0  0  0  0  0  0  0  0
    8.1435   -4.9479   25.0555 C   0  0  0  0  0  0  0  0  0  0  0  0
    8.7656   -4.4038   23.7691 C   0  0  0  0  0  0  0  0  0  0  0  0
    9.8592   -3.4257   24.0117 N   0  0  0  0  0  0  0  0  0  0  0  0
   10.0186   -2.3046   23.0633 C   0  0  0  0  0  0  0  0  0  0  0  0
   11.3867   -1.6967   23.0064 C   0  0  0  0  0  0  0  0  0  0  0  0
   11.6758   -0.5272   23.7256 C   0  0  0  0  0  0  0  0  0  0  0  0
   12.9496    0.0366   23.6310 C   0  0  0  0  0  0  0  0  0  0  0  0
   13.9170   -0.5637   22.8232 C   0  0  0  0  0  0  0  0  0  0  0  0
   13.5930   -1.7243   22.1168 C   0  0  0  0  0  0  0  0  0  0  0  0
   12.3468   -2.2591   22.2199 N   0  0  0  0  0  0  0  0  0  0  0  0
   10.0821   -3.0624   25.4209 C   0  0  0  0  0  0  0  0  0  0  0  0
   10.3197   -4.3405   26.2485 C   0  0  0  0  0  0  0  0  0  0  0  0
  1  2  3  0
  2  3  1  0
  3  4  1  0
  3  5  1  0
  5  6  1  0
  6  7  1  0
  7  8  1  0
  7 15  1  0
  8  9  1  0
  9 10  2  0
 10 11  1  0
 11 12  2  0
 12 13  1  0
 13 14  2  0
 14  9  1  0
 15 16  1  0
 16  3  1  0
M  END
>  <Hit>  (43) 
Mpro-x0387_0

>  <Receptor>  (43) 
Mpro-x0387_0

>  <SCORE>  (43) 
-12.017099999999999

>  <SCORE.norm>  (43) 
-0.75107199999999996

>  <SCORE.heavy>  (43) 
16

>  <OrigSmiles>  (43) 
C#CC1(O)CCN(Cc2ccccn2)CC1

>  <SuCOS_Score>  (43) 
0.54952801615462232

>  <Max_SuCOS_Score>  (43) 
0

>  <Cum_SuCOS_Score>  (43) 
0

>  <TransFSScore_50nM>  (43) 
0.0081040000000000001

>  <TransFSScore_1uM>  (43) 
0.030891999999999999

>  <TransFSScore_10nM>  (43) 
0.0029750000000000002

>  <TransFSScore_200nM>  (43) 
0.081103999999999996

>  <TransFSScore>  (43) 
0.030768749999999997

>  <FeatureSteinScore>  (43) 
0.41943312387731957

>  <XCos_RefMols>  (43) 
x1392_0,x0387_0,x1385_0

>  <XCos_NumHits>  (43) 
3

>  <XCos_Score1>  (43) 
12.0300

>  <XCos_Score2>  (43) 
0.0680

>  <XCos_Score3>  (43) 
0.0056

$$$$
C#CC1(O)CCN(Cc2ccccn2)CC1
     RDKit          3D

 16 17  0  0  0  0  0  0  0  0999 V2000
    8.1657   -5.8189   28.6210 C   0  0  0  0  0  0  0  0  0  0  0  0
    8.6654   -5.6338   27.5392 C   0  0  0  0  0  0  0  0  0  0  0  0
    9.2789   -5.4073   26.2110 C   0  0  0  0  0  0  0  0  0  0  0  0
    9.8300   -6.6196   25.7548 O   0  0  0  0  0  0  0  0  0  0  0  0
    8.1856   -4.9444   25.2370 C   0  0  0  0  0  0  0  0  0  0  0  0
    8.7651   -4.4184   23.9235 C   0  0  0  0  0  0  0  0  0  0  0  0
    9.8786   -3.4518   24.1163 N   0  0  0  0  0  0  0  0  0  0  0  0
   10.0154   -2.3404   23.1530 C   0  0  0  0  0  0  0  0  0  0  0  0
   11.3798   -1.7283   23.0630 C   0  0  0  0  0  0  0  0  0  0  0  0
   11.6832   -0.5592   23.7768 C   0  0  0  0  0  0  0  0  0  0  0  0
   12.9526    0.0087   23.6514 C   0  0  0  0  0  0  0  0  0  0  0  0
   13.9013   -0.5873   22.8186 C   0  0  0  0  0  0  0  0  0  0  0  0
   13.5632   -1.7477   22.1185 C   0  0  0  0  0  0  0  0  0  0  0  0
   12.3216   -2.2864   22.2517 N   0  0  0  0  0  0  0  0  0  0  0  0
   10.1588   -3.0797   25.5130 C   0  0  0  0  0  0  0  0  0  0  0  0
   10.4124   -4.3538   26.3420 C   0  0  0  0  0  0  0  0  0  0  0  0
  1  2  3  0
  2  3  1  0
  3  4  1  0
  3  5  1  0
  5  6  1  0
  6  7  1  0
  7  8  1  0
  7 15  1  0
  8  9  1  0
  9 10  2  0
 10 11  1  0
 11 12  2  0
 12 13  1  0
 13 14  2  0
 14  9  1  0
 15 16  1  0
 16  3  1  0
M  END
>  <Hit>  (44) 
Mpro-x0387_0

>  <Receptor>  (44) 
Mpro-x0387_0

>  <SCORE>  (44) 
-12.0223

>  <SCORE.norm>  (44) 
-0.75139199999999995

>  <SCORE.heavy>  (44) 
16

>  <OrigSmiles>  (44) 
C#CC1(O)CCN(Cc2ccccn2)CC1

>  <SuCOS_Score>  (44) 
0.55512696398909878

>  <Max_SuCOS_Score>  (44) 
0

>  <Cum_SuCOS_Score>  (44) 
0

>  <TransFSScore_50nM>  (44) 
0.0084360000000000008

>  <TransFSScore_1uM>  (44) 
0.032561

>  <TransFSScore_10nM>  (44) 
0.0026289999999999998

>  <TransFSScore_200nM>  (44) 
0.09511

>  <TransFSScore>  (44) 
0.034684

>  <FeatureSteinScore>  (44) 
0.39671250142319509

>  <XCos_RefMols>  (44) 
x1392_0,x0387_0,x1385_0

>  <XCos_NumHits>  (44) 
3

>  <XCos_Score1>  (44) 
11.6047

>  <XCos_Score2>  (44) 
0.0656

>  <XCos_Score3>  (44) 
0.0056

$$$$
C#CC1(O)CCN(Cc2ccccn2)CC1
     RDKit          3D

 16 17  0  0  0  0  0  0  0  0999 V2000
    8.1747   -5.7312   28.5310 C   0  0  0  0  0  0  0  0  0  0  0  0
    8.6726   -5.5526   27.4474 C   0  0  0  0  0  0  0  0  0  0  0  0
    9.2844   -5.3337   26.1171 C   0  0  0  0  0  0  0  0  0  0  0  0
    9.8139   -6.5541   25.6567 O   0  0  0  0  0  0  0  0  0  0  0  0
    8.1947   -4.8517   25.1482 C   0  0  0  0  0  0  0  0  0  0  0  0
    8.7773   -4.3330   23.8332 C   0  0  0  0  0  0  0  0  0  0  0  0
    9.9070   -3.3847   24.0230 N   0  0  0  0  0  0  0  0  0  0  0  0
   10.0578   -2.2742   23.0609 C   0  0  0  0  0  0  0  0  0  0  0  0
   11.4322   -1.6856   22.9645 C   0  0  0  0  0  0  0  0  0  0  0  0
   11.7512   -0.5070   23.6555 C   0  0  0  0  0  0  0  0  0  0  0  0
   13.0299    0.0380   23.5241 C   0  0  0  0  0  0  0  0  0  0  0  0
   13.9725   -0.5899   22.7081 C   0  0  0  0  0  0  0  0  0  0  0  0
   13.6189   -1.7590   22.0304 C   0  0  0  0  0  0  0  0  0  0  0  0
   12.3683   -2.2752   22.1691 N   0  0  0  0  0  0  0  0  0  0  0  0
   10.1988   -3.0195   25.4191 C   0  0  0  0  0  0  0  0  0  0  0  0
   10.4352   -4.2989   26.2451 C   0  0  0  0  0  0  0  0  0  0  0  0
  1  2  3  0
  2  3  1  0
  3  4  1  0
  3  5  1  0
  5  6  1  0
  6  7  1  0
  7  8  1  0
  7 15  1  0
  8  9  1  0
  9 10  2  0
 10 11  1  0
 11 12  2  0
 12 13  1  0
 13 14  2  0
 14  9  1  0
 15 16  1  0
 16  3  1  0
M  END
>  <Hit>  (45) 
Mpro-x0387_0

>  <Receptor>  (45) 
Mpro-x0387_0

>  <SCORE>  (45) 
-12.0306

>  <SCORE.norm>  (45) 
-0.751911

>  <SCORE.heavy>  (45) 
16

>  <OrigSmiles>  (45) 
C#CC1(O)CCN(Cc2ccccn2)CC1

>  <SuCOS_Score>  (45) 
0.55155449795336964

>  <Max_SuCOS_Score>  (45) 
0

>  <Cum_SuCOS_Score>  (45) 
0

>  <TransFSScore_50nM>  (45) 
0.009528

>  <TransFSScore_1uM>  (45) 
0.029822000000000001

>  <TransFSScore_10nM>  (45) 
0.0024859999999999999

>  <TransFSScore_200nM>  (45) 
0.097946000000000005

>  <TransFSScore>  (45) 
0.034945500000000004

>  <FeatureSteinScore>  (45) 
0.41945489355225318

>  <XCos_RefMols>  (45) 
x1392_0,x0387_0,x1385_0

>  <XCos_NumHits>  (45) 
3

>  <XCos_Score1>  (45) 
11.6536

>  <XCos_Score2>  (45) 
0.0658

>  <XCos_Score3>  (45) 
0.0056

$$$$
C#CC1(O)CCN(Cc2ccccn2)CC1
     RDKit          3D

 16 17  0  0  0  0  0  0  0  0999 V2000
    8.1081   -5.8302   28.5428 C   0  0  0  0  0  0  0  0  0  0  0  0
    8.5944   -5.6362   27.4565 C   0  0  0  0  0  0  0  0  0  0  0  0
    9.1918   -5.3974   26.1231 C   0  0  0  0  0  0  0  0  0  0  0  0
    9.7117   -6.6118   25.6365 O   0  0  0  0  0  0  0  0  0  0  0  0
    8.0929   -4.8957   25.1749 C   0  0  0  0  0  0  0  0  0  0  0  0
    8.6623   -4.3572   23.8620 C   0  0  0  0  0  0  0  0  0  0  0  0
    9.7976   -3.4161   24.0545 N   0  0  0  0  0  0  0  0  0  0  0  0
    9.9414   -2.2903   23.1093 C   0  0  0  0  0  0  0  0  0  0  0  0
   11.3105   -1.6878   23.0263 C   0  0  0  0  0  0  0  0  0  0  0  0
   11.6152   -0.5144   23.7326 C   0  0  0  0  0  0  0  0  0  0  0  0
   12.8893    0.0441   23.6139 C   0  0  0  0  0  0  0  0  0  0  0  0
   13.8416   -0.5654   22.7950 C   0  0  0  0  0  0  0  0  0  0  0  0
   13.5022   -1.7296   22.1020 C   0  0  0  0  0  0  0  0  0  0  0  0
   12.2559   -2.2591   22.2285 N   0  0  0  0  0  0  0  0  0  0  0  0
   10.1065   -3.0751   25.4531 C   0  0  0  0  0  0  0  0  0  0  0  0
   10.3476   -4.3688   26.2550 C   0  0  0  0  0  0  0  0  0  0  0  0
  1  2  3  0
  2  3  1  0
  3  4  1  0
  3  5  1  0
  5  6  1  0
  6  7  1  0
  7  8  1  0
  7 15  1  0
  8  9  1  0
  9 10  2  0
 10 11  1  0
 11 12  2  0
 12 13  1  0
 13 14  2  0
 14  9  1  0
 15 16  1  0
 16  3  1  0
M  END
>  <Hit>  (46) 
Mpro-x0387_0

>  <Receptor>  (46) 
Mpro-x0387_0

>  <SCORE>  (46) 
-12.038

>  <SCORE.norm>  (46) 
-0.75237200000000004

>  <SCORE.heavy>  (46) 
16

>  <OrigSmiles>  (46) 
C#CC1(O)CCN(Cc2ccccn2)CC1

>  <SuCOS_Score>  (46) 
0.56278632610753332

>  <Max_SuCOS_Score>  (46) 
0

>  <Cum_SuCOS_Score>  (46) 
0

>  <TransFSScore_50nM>  (46) 
0.008515

>  <TransFSScore_1uM>  (46) 
0.032725999999999998

>  <TransFSScore_10nM>  (46) 
0.0032169999999999998

>  <TransFSScore_200nM>  (46) 
0.084859000000000004

>  <TransFSScore>  (46) 
0.032329250000000004

>  <FeatureSteinScore>  (46) 
0.43449038995982053

>  <XCos_RefMols>  (46) 
x1392_0,x0387_0,x1385_0

>  <XCos_NumHits>  (46) 
3

>  <XCos_Score1>  (46) 
12.0207

>  <XCos_Score2>  (46) 
0.1358

>  <XCos_Score3>  (46) 
0.0113

$$$$
C#CC1(O)CCN(Cc2cccnc2)CC1
     RDKit          3D

 16 17  0  0  0  0  0  0  0  0999 V2000
    8.9979   -1.5587   26.9629 C   0  0  0  0  0  0  0  0  0  0  0  0
    8.7647   -2.6574   26.5210 C   0  0  0  0  0  0  0  0  0  0  0  0
    8.4643   -4.0200   25.9918 C   0  0  0  0  0  0  0  0  0  0  0  0
    8.0879   -4.6526   27.1413 O   0  0  0  0  0  0  0  0  0  0  0  0
    9.7112   -4.6631   25.4085 C   0  0  0  0  0  0  0  0  0  0  0  0
   10.3240   -3.6754   24.4191 C   0  0  0  0  0  0  0  0  0  0  0  0
    9.3157   -2.8770   23.6729 N   0  0  0  0  0  0  0  0  0  0  0  0
    9.7768   -2.2351   22.4374 C   0  0  0  0  0  0  0  0  0  0  0  0
   10.9539   -1.3149   22.6035 C   0  0  0  0  0  0  0  0  0  0  0  0
   10.9242   -0.2594   23.5283 C   0  0  0  0  0  0  0  0  0  0  0  0
   12.0266    0.5863   23.6563 C   0  0  0  0  0  0  0  0  0  0  0  0
   13.1521    0.3698   22.8593 C   0  0  0  0  0  0  0  0  0  0  0  0
   13.1708   -0.6572   21.9668 N   0  0  0  0  0  0  0  0  0  0  0  0
   12.1074   -1.4950   21.8244 C   0  0  0  0  0  0  0  0  0  0  0  0
    8.0111   -3.5588   23.5118 C   0  0  0  0  0  0  0  0  0  0  0  0
    7.3883   -3.9306   24.8868 C   0  0  0  0  0  0  0  0  0  0  0  0
  1  2  3  0
  2  3  1  0
  3  4  1  0
  3  5  1  0
  5  6  1  0
  6  7  1  0
  7  8  1  0
  7 15  1  0
  8  9  1  0
  9 10  2  0
 10 11  1  0
 11 12  2  0
 12 13  1  0
 13 14  2  0
 14  9  1  0
 15 16  1  0
 16  3  1  0
M  END
>  <Hit>  (47) 
Mpro-x0387_0

>  <Receptor>  (47) 
Mpro-x1249_0

>  <SCORE>  (47) 
-12.2597

>  <SCORE.norm>  (47) 
-0.766231

>  <SCORE.heavy>  (47) 
16

>  <OrigSmiles>  (47) 
C#CC1(O)CCN(Cc2cccnc2)CC1

>  <SuCOS_Score>  (47) 
0.55011749707008784

>  <Max_SuCOS_Score>  (47) 
0

>  <Cum_SuCOS_Score>  (47) 
0

>  <TransFSScore_50nM>  (47) 
0.003532

>  <TransFSScore_1uM>  (47) 
0.05917

>  <TransFSScore_10nM>  (47) 
0.012814000000000001

>  <TransFSScore_200nM>  (47) 
0.056165

>  <TransFSScore>  (47) 
0.032920249999999998

>  <FeatureSteinScore>  (47) 
0.67395142767246874

>  <XCos_RefMols>  (47) 
x1392_0,x0874_0

>  <XCos_NumHits>  (47) 
2

>  <XCos_Score1>  (47) 
12.1467

>  <XCos_Score2>  (47) 
0.2059

>  <XCos_Score3>  (47) 
0.0169

$$$$
C#CC1(O)CCN(Cc2cccnc2)CC1
     RDKit          3D

 16 17  0  0  0  0  0  0  0  0999 V2000
    9.0900   -1.4856   26.9609 C   0  0  0  0  0  0  0  0  0  0  0  0
    8.8276   -2.5731   26.5078 C   0  0  0  0  0  0  0  0  0  0  0  0
    8.4857   -3.9094   25.9384 C   0  0  0  0  0  0  0  0  0  0  0  0
    8.0798   -4.5609   27.0671 O   0  0  0  0  0  0  0  0  0  0  0  0
    9.7147   -4.5776   25.3452 C   0  0  0  0  0  0  0  0  0  0  0  0
   10.3675   -3.5838   24.3881 C   0  0  0  0  0  0  0  0  0  0  0  0
    9.3921   -2.7312   23.6582 N   0  0  0  0  0  0  0  0  0  0  0  0
    9.8836   -2.0709   22.4444 C   0  0  0  0  0  0  0  0  0  0  0  0
   11.0799   -1.1834   22.6469 C   0  0  0  0  0  0  0  0  0  0  0  0
   11.0967   -0.2082   23.6562 C   0  0  0  0  0  0  0  0  0  0  0  0
   12.2160    0.6092   23.8171 C   0  0  0  0  0  0  0  0  0  0  0  0
   13.3119    0.4447   22.9681 C   0  0  0  0  0  0  0  0  0  0  0  0
   13.2857   -0.5047   21.9936 N   0  0  0  0  0  0  0  0  0  0  0  0
   12.2050   -1.3135   21.8178 C   0  0  0  0  0  0  0  0  0  0  0  0
    8.0666   -3.3639   23.4694 C   0  0  0  0  0  0  0  0  0  0  0  0
    7.4215   -3.7529   24.8294 C   0  0  0  0  0  0  0  0  0  0  0  0
  1  2  3  0
  2  3  1  0
  3  4  1  0
  3  5  1  0
  5  6  1  0
  6  7  1  0
  7  8  1  0
  7 15  1  0
  8  9  1  0
  9 10  2  0
 10 11  1  0
 11 12  2  0
 12 13  1  0
 13 14  2  0
 14  9  1  0
 15 16  1  0
 16  3  1  0
M  END
>  <Hit>  (48) 
Mpro-x0387_0

>  <Receptor>  (48) 
Mpro-x1249_0

>  <SCORE>  (48) 
-12.2605

>  <SCORE.norm>  (48) 
-0.76628399999999997

>  <SCORE.heavy>  (48) 
16

>  <OrigSmiles>  (48) 
C#CC1(O)CCN(Cc2cccnc2)CC1

>  <SuCOS_Score>  (48) 
0.55108323725242703

>  <Max_SuCOS_Score>  (48) 
0

>  <Cum_SuCOS_Score>  (48) 
0

>  <TransFSScore_50nM>  (48) 
0.0042519999999999997

>  <TransFSScore_1uM>  (48) 
0.055967000000000003

>  <TransFSScore_10nM>  (48) 
0.015282

>  <TransFSScore_200nM>  (48) 
0.044942000000000003

>  <TransFSScore>  (48) 
0.030110749999999999

>  <FeatureSteinScore>  (48) 
0.69191024973342152

>  <XCos_RefMols>  (48) 
x1392_0,x0874_0

>  <XCos_NumHits>  (48) 
2

>  <XCos_Score1>  (48) 
12.0749

>  <XCos_Score2>  (48) 
0.2729

>  <XCos_Score3>  (48) 
0.0226

$$$$
C#CC1(O)CCN(Cc2cccnc2)CC1
     RDKit          3D

 16 17  0  0  0  0  0  0  0  0999 V2000
    9.0645   -1.5107   26.8945 C   0  0  0  0  0  0  0  0  0  0  0  0
    8.8147   -2.6149   26.4760 C   0  0  0  0  0  0  0  0  0  0  0  0
    8.4962   -3.9713   25.9416 C   0  0  0  0  0  0  0  0  0  0  0  0
    8.0880   -4.5961   27.0844 O   0  0  0  0  0  0  0  0  0  0  0  0
    9.7398   -4.6392   25.3793 C   0  0  0  0  0  0  0  0  0  0  0  0
   10.3888   -3.6640   24.4006 C   0  0  0  0  0  0  0  0  0  0  0  0
    9.4093   -2.8458   23.6376 N   0  0  0  0  0  0  0  0  0  0  0  0
    9.9039   -2.2134   22.4102 C   0  0  0  0  0  0  0  0  0  0  0  0
   11.0910   -1.3102   22.5977 C   0  0  0  0  0  0  0  0  0  0  0  0
   11.0568   -0.2491   23.5157 C   0  0  0  0  0  0  0  0  0  0  0  0
   12.1688    0.5805   23.6638 C   0  0  0  0  0  0  0  0  0  0  0  0
   13.3084    0.3423   22.8935 C   0  0  0  0  0  0  0  0  0  0  0  0
   13.3314   -0.6900   22.0074 N   0  0  0  0  0  0  0  0  0  0  0  0
   12.2587   -1.5124   21.8457 C   0  0  0  0  0  0  0  0  0  0  0  0
    8.0943   -3.5015   23.4543 C   0  0  0  0  0  0  0  0  0  0  0  0
    7.4411   -3.8607   24.8185 C   0  0  0  0  0  0  0  0  0  0  0  0
  1  2  3  0
  2  3  1  0
  3  4  1  0
  3  5  1  0
  5  6  1  0
  6  7  1  0
  7  8  1  0
  7 15  1  0
  8  9  1  0
  9 10  2  0
 10 11  1  0
 11 12  2  0
 12 13  1  0
 13 14  2  0
 14  9  1  0
 15 16  1  0
 16  3  1  0
M  END
>  <Hit>  (49) 
Mpro-x0387_0

>  <Receptor>  (49) 
Mpro-x1249_0

>  <SCORE>  (49) 
-12.270799999999999

>  <SCORE.norm>  (49) 
-0.76692700000000003

>  <SCORE.heavy>  (49) 
16

>  <OrigSmiles>  (49) 
C#CC1(O)CCN(Cc2cccnc2)CC1

>  <SuCOS_Score>  (49) 
0.55390724143948233

>  <Max_SuCOS_Score>  (49) 
0

>  <Cum_SuCOS_Score>  (49) 
0

>  <TransFSScore_50nM>  (49) 
0.0034069999999999999

>  <TransFSScore_1uM>  (49) 
0.054080000000000003

>  <TransFSScore_10nM>  (49) 
0.012787

>  <TransFSScore_200nM>  (49) 
0.052016

>  <TransFSScore>  (49) 
0.030572500000000002

>  <FeatureSteinScore>  (49) 
0.67978410738079809

>  <XCos_RefMols>  (49) 
x1392_0,x0874_0

>  <XCos_NumHits>  (49) 
2

>  <XCos_Score1>  (49) 
12.0408

>  <XCos_Score2>  (49) 
0.2721

>  <XCos_Score3>  (49) 
0.0226

$$$$
C#CC1(O)CCN(Cc2cccnc2)CC1
     RDKit          3D

 16 17  0  0  0  0  0  0  0  0999 V2000
    9.1200   -1.3976   26.9249 C   0  0  0  0  0  0  0  0  0  0  0  0
    8.8309   -2.4855   26.4893 C   0  0  0  0  0  0  0  0  0  0  0  0
    8.4798   -3.8243   25.9312 C   0  0  0  0  0  0  0  0  0  0  0  0
    8.1009   -4.4737   27.0705 O   0  0  0  0  0  0  0  0  0  0  0  0
    9.6969   -4.4909   25.3125 C   0  0  0  0  0  0  0  0  0  0  0  0
   10.3256   -3.4981   24.3384 C   0  0  0  0  0  0  0  0  0  0  0  0
    9.3319   -2.6500   23.6282 N   0  0  0  0  0  0  0  0  0  0  0  0
    9.7944   -1.9917   22.4020 C   0  0  0  0  0  0  0  0  0  0  0  0
   11.0555   -1.1874   22.5524 C   0  0  0  0  0  0  0  0  0  0  0  0
   11.1479   -0.1541   23.4978 C   0  0  0  0  0  0  0  0  0  0  0  0
   12.3267    0.5838   23.6109 C   0  0  0  0  0  0  0  0  0  0  0  0
   13.4060    0.2822   22.7784 C   0  0  0  0  0  0  0  0  0  0  0  0
   13.3062   -0.7225   21.8662 N   0  0  0  0  0  0  0  0  0  0  0  0
   12.1665   -1.4557   21.7377 C   0  0  0  0  0  0  0  0  0  0  0  0
    8.0042   -3.2865   23.4708 C   0  0  0  0  0  0  0  0  0  0  0  0
    7.3907   -3.6735   24.8459 C   0  0  0  0  0  0  0  0  0  0  0  0
  1  2  3  0
  2  3  1  0
  3  4  1  0
  3  5  1  0
  5  6  1  0
  6  7  1  0
  7  8  1  0
  7 15  1  0
  8  9  1  0
  9 10  2  0
 10 11  1  0
 11 12  2  0
 12 13  1  0
 13 14  2  0
 14  9  1  0
 15 16  1  0
 16  3  1  0
M  END
>  <Hit>  (50) 
Mpro-x0387_0

>  <Receptor>  (50) 
Mpro-x1249_0

>  <SCORE>  (50) 
-12.3264

>  <SCORE.norm>  (50) 
-0.770401

>  <SCORE.heavy>  (50) 
16

>  <OrigSmiles>  (50) 
C#CC1(O)CCN(Cc2cccnc2)CC1

>  <SuCOS_Score>  (50) 
0.53332870686708655

>  <Max_SuCOS_Score>  (50) 
0

>  <Cum_SuCOS_Score>  (50) 
0

>  <TransFSScore_50nM>  (50) 
0.0042979999999999997

>  <TransFSScore_1uM>  (50) 
0.048819000000000001

>  <TransFSScore_10nM>  (50) 
0.014356000000000001

>  <TransFSScore_200nM>  (50) 
0.043838000000000002

>  <TransFSScore>  (50) 
0.027827750000000002

>  <FeatureSteinScore>  (50) 
0.68310145347985829

>  <XCos_RefMols>  (50) 
x1392_0,x0874_0

>  <XCos_NumHits>  (50) 
2

>  <XCos_Score1>  (50) 
12.0666

>  <XCos_Score2>  (50) 
0.2727

>  <XCos_Score3>  (50) 
0.0226

$$$$
C#CC1(O)CCN(Cc2cccnc2)CC1
     RDKit          3D

 16 17  0  0  0  0  0  0  0  0999 V2000
   10.5229   -5.2634   25.1843 C   0  0  0  0  0  0  0  0  0  0  0  0
    9.5762   -4.5479   25.4047 C   0  0  0  0  0  0  0  0  0  0  0  0
    8.4098   -3.6526   25.6593 C   0  0  0  0  0  0  0  0  0  0  0  0
    7.8725   -4.2558   26.7595 O   0  0  0  0  0  0  0  0  0  0  0  0
    7.4330   -3.6891   24.4960 C   0  0  0  0  0  0  0  0  0  0  0  0
    8.2228   -3.4208   23.2175 C   0  0  0  0  0  0  0  0  0  0  0  0
    9.3384   -2.4546   23.3985 N   0  0  0  0  0  0  0  0  0  0  0  0
    9.8619   -1.8276   22.1804 C   0  0  0  0  0  0  0  0  0  0  0  0
   11.2024   -1.1651   22.3354 C   0  0  0  0  0  0  0  0  0  0  0  0
   11.3262    0.0816   22.9681 C   0  0  0  0  0  0  0  0  0  0  0  0
   12.5810    0.6795   23.0907 C   0  0  0  0  0  0  0  0  0  0  0  0
   13.7040    0.0256   22.5808 C   0  0  0  0  0  0  0  0  0  0  0  0
   13.5729   -1.1834   21.9703 N   0  0  0  0  0  0  0  0  0  0  0  0
   12.3593   -1.7859   21.8391 C   0  0  0  0  0  0  0  0  0  0  0  0
    9.1180   -1.4826   24.4937 C   0  0  0  0  0  0  0  0  0  0  0  0
    8.8945   -2.1988   25.8553 C   0  0  0  0  0  0  0  0  0  0  0  0
  1  2  3  0
  2  3  1  0
  3  4  1  0
  3  5  1  0
  5  6  1  0
  6  7  1  0
  7  8  1  0
  7 15  1  0
  8  9  1  0
  9 10  2  0
 10 11  1  0
 11 12  2  0
 12 13  1  0
 13 14  2  0
 14  9  1  0
 15 16  1  0
 16  3  1  0
M  END
>  <Hit>  (51) 
Mpro-x0387_0

>  <Receptor>  (51) 
Mpro-x0874_0

>  <SCORE>  (51) 
-12.3925

>  <SCORE.norm>  (51) 
-0.77453000000000005

>  <SCORE.heavy>  (51) 
16

>  <OrigSmiles>  (51) 
C#CC1(O)CCN(Cc2cccnc2)CC1

>  <SuCOS_Score>  (51) 
0.47044698358887949

>  <Max_SuCOS_Score>  (51) 
0

>  <Cum_SuCOS_Score>  (51) 
0

>  <TransFSScore_50nM>  (51) 
0.0058710000000000004

>  <TransFSScore_1uM>  (51) 
0.068720000000000003

>  <TransFSScore_10nM>  (51) 
0.022459

>  <TransFSScore_200nM>  (51) 
0.035244999999999999

>  <TransFSScore>  (51) 
0.033073749999999999

>  <FeatureSteinScore>  (51) 
0.70256088509848813

>  <XCos_RefMols>  (51) 
x1392_0,x0874_0

>  <XCos_NumHits>  (51) 
2

>  <XCos_Score1>  (51) 
12.1333

>  <XCos_Score2>  (51) 
0.1371

>  <XCos_Score3>  (51) 
0.0113

$$$$
C#CC1(O)CCN(Cc2cccnc2)CC1
     RDKit          3D

 16 17  0  0  0  0  0  0  0  0999 V2000
   10.5562   -5.3888   25.3064 C   0  0  0  0  0  0  0  0  0  0  0  0
    9.6163   -4.6558   25.4970 C   0  0  0  0  0  0  0  0  0  0  0  0
    8.4487   -3.7615   25.7495 C   0  0  0  0  0  0  0  0  0  0  0  0
    7.9112   -4.3640   26.8501 O   0  0  0  0  0  0  0  0  0  0  0  0
    7.4729   -3.8006   24.5855 C   0  0  0  0  0  0  0  0  0  0  0  0
    8.2634   -3.5329   23.3073 C   0  0  0  0  0  0  0  0  0  0  0  0
    9.3778   -2.5653   23.4880 N   0  0  0  0  0  0  0  0  0  0  0  0
    9.9016   -1.9392   22.2695 C   0  0  0  0  0  0  0  0  0  0  0  0
   11.2112   -1.2210   22.4396 C   0  0  0  0  0  0  0  0  0  0  0  0
   11.2908   -0.0194   23.1606 C   0  0  0  0  0  0  0  0  0  0  0  0
   12.5170    0.6324   23.2957 C   0  0  0  0  0  0  0  0  0  0  0  0
   13.6560    0.0772   22.7099 C   0  0  0  0  0  0  0  0  0  0  0  0
   13.5680   -1.0889   22.0142 N   0  0  0  0  0  0  0  0  0  0  0  0
   12.3827   -1.7425   21.8690 C   0  0  0  0  0  0  0  0  0  0  0  0
    9.1554   -1.5922   24.5818 C   0  0  0  0  0  0  0  0  0  0  0  0
    8.9316   -2.3069   25.9441 C   0  0  0  0  0  0  0  0  0  0  0  0
  1  2  3  0
  2  3  1  0
  3  4  1  0
  3  5  1  0
  5  6  1  0
  6  7  1  0
  7  8  1  0
  7 15  1  0
  8  9  1  0
  9 10  2  0
 10 11  1  0
 11 12  2  0
 12 13  1  0
 13 14  2  0
 14  9  1  0
 15 16  1  0
 16  3  1  0
M  END
>  <Hit>  (52) 
Mpro-x0387_0

>  <Receptor>  (52) 
Mpro-x0874_0

>  <SCORE>  (52) 
-12.4687

>  <SCORE.norm>  (52) 
-0.77929599999999999

>  <SCORE.heavy>  (52) 
16

>  <OrigSmiles>  (52) 
C#CC1(O)CCN(Cc2cccnc2)CC1

>  <SuCOS_Score>  (52) 
0.508135283140976

>  <Max_SuCOS_Score>  (52) 
0

>  <Cum_SuCOS_Score>  (52) 
0

>  <TransFSScore_50nM>  (52) 
0.0048710000000000003

>  <TransFSScore_1uM>  (52) 
0.067187999999999998

>  <TransFSScore_10nM>  (52) 
0.017274999999999999

>  <TransFSScore_200nM>  (52) 
0.033223000000000003

>  <TransFSScore>  (52) 
0.03063925

>  <FeatureSteinScore>  (52) 
0.7097301415284244

>  <XCos_RefMols>  (52) 
x1392_0,x0874_0

>  <XCos_NumHits>  (52) 
2

>  <XCos_Score1>  (52) 
12.0734

>  <XCos_Score2>  (52) 
0.1364

>  <XCos_Score3>  (52) 
0.0113

$$$$
C#CC1(O)CCN(Cc2cccnc2)CC1
     RDKit          3D

 16 17  0  0  0  0  0  0  0  0999 V2000
    9.3414   -1.0121   26.6480 C   0  0  0  0  0  0  0  0  0  0  0  0
    8.9587   -2.0721   26.2157 C   0  0  0  0  0  0  0  0  0  0  0  0
    8.4835   -3.3738   25.6618 C   0  0  0  0  0  0  0  0  0  0  0  0
    7.9999   -3.9611   26.7951 O   0  0  0  0  0  0  0  0  0  0  0  0
    9.6412   -4.1768   25.0928 C   0  0  0  0  0  0  0  0  0  0  0  0
   10.4048   -3.2723   24.1290 C   0  0  0  0  0  0  0  0  0  0  0  0
    9.5320   -2.3334   23.3755 N   0  0  0  0  0  0  0  0  0  0  0  0
   10.1026   -1.7475   22.1580 C   0  0  0  0  0  0  0  0  0  0  0  0
   11.4198   -1.0488   22.3492 C   0  0  0  0  0  0  0  0  0  0  0  0
   12.5352   -1.3766   21.5628 C   0  0  0  0  0  0  0  0  0  0  0  0
   13.7491   -0.7196   21.7668 C   0  0  0  0  0  0  0  0  0  0  0  0
   13.8390    0.2621   22.7552 C   0  0  0  0  0  0  0  0  0  0  0  0
   12.7511    0.5730   23.5111 N   0  0  0  0  0  0  0  0  0  0  0  0
   11.5567   -0.0544   23.3303 C   0  0  0  0  0  0  0  0  0  0  0  0
    8.1492   -2.8259   23.1805 C   0  0  0  0  0  0  0  0  0  0  0  0
    7.4530   -3.1235   24.5384 C   0  0  0  0  0  0  0  0  0  0  0  0
  1  2  3  0
  2  3  1  0
  3  4  1  0
  3  5  1  0
  5  6  1  0
  6  7  1  0
  7  8  1  0
  7 15  1  0
  8  9  1  0
  9 10  2  0
 10 11  1  0
 11 12  2  0
 12 13  1  0
 13 14  2  0
 14  9  1  0
 15 16  1  0
 16  3  1  0
M  END
>  <Hit>  (53) 
Mpro-x0387_0

>  <Receptor>  (53) 
Mpro-x1249_0

>  <SCORE>  (53) 
-12.7948

>  <SCORE.norm>  (53) 
-0.79967500000000002

>  <SCORE.heavy>  (53) 
16

>  <OrigSmiles>  (53) 
C#CC1(O)CCN(Cc2cccnc2)CC1

>  <SuCOS_Score>  (53) 
0.43977648845966971

>  <Max_SuCOS_Score>  (53) 
0

>  <Cum_SuCOS_Score>  (53) 
0

>  <TransFSScore_50nM>  (53) 
0.013783999999999999

>  <TransFSScore_1uM>  (53) 
0.071778999999999996

>  <TransFSScore_10nM>  (53) 
0.015994999999999999

>  <TransFSScore_200nM>  (53) 
0.078014

>  <TransFSScore>  (53) 
0.044893000000000002

>  <FeatureSteinScore>  (53) 
0.5268748993592316

>  <XCos_RefMols>  (53) 
x1392_0,x0874_0

>  <XCos_NumHits>  (53) 
2

>  <XCos_Score1>  (53) 
11.0261

>  <XCos_Score2>  (53) 
0.1246

>  <XCos_Score3>  (53) 
0.0113

$$$$
C#CC1(O)CCN(Cc2cccnc2)CC1
     RDKit          3D

 16 17  0  0  0  0  0  0  0  0999 V2000
    9.2048   -0.9592   26.4828 C   0  0  0  0  0  0  0  0  0  0  0  0
    8.8586   -2.0224   26.0281 C   0  0  0  0  0  0  0  0  0  0  0  0
    8.4179   -3.3266   25.4522 C   0  0  0  0  0  0  0  0  0  0  0  0
    7.8748   -3.9129   26.5587 O   0  0  0  0  0  0  0  0  0  0  0  0
    9.6070   -4.1275   24.9490 C   0  0  0  0  0  0  0  0  0  0  0  0
   10.4196   -3.2229   24.0262 C   0  0  0  0  0  0  0  0  0  0  0  0
    9.5867   -2.2881   23.2241 N   0  0  0  0  0  0  0  0  0  0  0  0
   10.2212   -1.7033   22.0382 C   0  0  0  0  0  0  0  0  0  0  0  0
   11.4868   -0.9388   22.3096 C   0  0  0  0  0  0  0  0  0  0  0  0
   11.5503    0.0177   23.3349 C   0  0  0  0  0  0  0  0  0  0  0  0
   12.7345    0.7204   23.5601 C   0  0  0  0  0  0  0  0  0  0  0  0
   13.8479    0.4607   22.7591 C   0  0  0  0  0  0  0  0  0  0  0  0
   13.7759   -0.4696   21.7687 N   0  0  0  0  0  0  0  0  0  0  0  0
   12.6316   -1.1674   21.5304 C   0  0  0  0  0  0  0  0  0  0  0  0
    8.2179   -2.7850   22.9551 C   0  0  0  0  0  0  0  0  0  0  0  0
    7.4495   -3.0817   24.2736 C   0  0  0  0  0  0  0  0  0  0  0  0
  1  2  3  0
  2  3  1  0
  3  4  1  0
  3  5  1  0
  5  6  1  0
  6  7  1  0
  7  8  1  0
  7 15  1  0
  8  9  1  0
  9 10  2  0
 10 11  1  0
 11 12  2  0
 12 13  1  0
 13 14  2  0
 14  9  1  0
 15 16  1  0
 16  3  1  0
M  END
>  <Hit>  (54) 
Mpro-x0387_0

>  <Receptor>  (54) 
Mpro-x0874_0

>  <SCORE>  (54) 
-13.618399999999999

>  <SCORE.norm>  (54) 
-0.85115200000000002

>  <SCORE.heavy>  (54) 
16

>  <OrigSmiles>  (54) 
C#CC1(O)CCN(Cc2cccnc2)CC1

>  <SuCOS_Score>  (54) 
0.40295013803944951

>  <Max_SuCOS_Score>  (54) 
0

>  <Cum_SuCOS_Score>  (54) 
0

>  <TransFSScore_50nM>  (54) 
0.0099270000000000001

>  <TransFSScore_1uM>  (54) 
0.079243999999999995

>  <TransFSScore_10nM>  (54) 
0.013076000000000001

>  <TransFSScore_200nM>  (54) 
0.044045000000000001

>  <TransFSScore>  (54) 
0.036573000000000001

>  <FeatureSteinScore>  (54) 
0.48796035421070488

>  <XCos_RefMols>  (54) 
x1392_0,x0874_0

>  <XCos_NumHits>  (54) 
2

>  <XCos_Score1>  (54) 
10.7042

>  <XCos_Score2>  (54) 
0.1210

>  <XCos_Score3>  (54) 
0.0113

$$$$
C#CC1(O)CCN(Cc2cccnc2)CC1
     RDKit          3D

 16 17  0  0  0  0  0  0  0  0999 V2000
    9.1616   -0.8282   26.3083 C   0  0  0  0  0  0  0  0  0  0  0  0
    8.8455   -1.9153   25.8896 C   0  0  0  0  0  0  0  0  0  0  0  0
    8.4355   -3.2514   25.3664 C   0  0  0  0  0  0  0  0  0  0  0  0
    7.8571   -3.7850   26.4817 O   0  0  0  0  0  0  0  0  0  0  0  0
    9.6478   -4.0661   24.9480 C   0  0  0  0  0  0  0  0  0  0  0  0
   10.4865   -3.2027   24.0093 C   0  0  0  0  0  0  0  0  0  0  0  0
    9.6762   -2.3180   23.1308 N   0  0  0  0  0  0  0  0  0  0  0  0
   10.3488   -1.7891   21.9396 C   0  0  0  0  0  0  0  0  0  0  0  0
   11.6351   -1.0598   22.2106 C   0  0  0  0  0  0  0  0  0  0  0  0
   12.7880   -1.3170   21.4524 C   0  0  0  0  0  0  0  0  0  0  0  0
   13.9720   -0.6332   21.7305 C   0  0  0  0  0  0  0  0  0  0  0  0
   13.9946    0.3046   22.7643 C   0  0  0  0  0  0  0  0  0  0  0  0
   12.8709    0.5473   23.4923 N   0  0  0  0  0  0  0  0  0  0  0  0
   11.7046   -0.1075   23.2393 C   0  0  0  0  0  0  0  0  0  0  0  0
    8.3217   -2.8407   22.8391 C   0  0  0  0  0  0  0  0  0  0  0  0
    7.5085   -3.0763   24.1430 C   0  0  0  0  0  0  0  0  0  0  0  0
  1  2  3  0
  2  3  1  0
  3  4  1  0
  3  5  1  0
  5  6  1  0
  6  7  1  0
  7  8  1  0
  7 15  1  0
  8  9  1  0
  9 10  2  0
 10 11  1  0
 11 12  2  0
 12 13  1  0
 13 14  2  0
 14  9  1  0
 15 16  1  0
 16  3  1  0
M  END
>  <Hit>  (55) 
Mpro-x0387_0

>  <Receptor>  (55) 
Mpro-x0874_0

>  <SCORE>  (55) 
-13.636699999999999

>  <SCORE.norm>  (55) 
-0.852294

>  <SCORE.heavy>  (55) 
16

>  <OrigSmiles>  (55) 
C#CC1(O)CCN(Cc2cccnc2)CC1

>  <SuCOS_Score>  (55) 
0.39286510112618145

>  <Max_SuCOS_Score>  (55) 
0

>  <Cum_SuCOS_Score>  (55) 
0

>  <TransFSScore_50nM>  (55) 
0.012004000000000001

>  <TransFSScore_1uM>  (55) 
0.096680000000000002

>  <TransFSScore_10nM>  (55) 
0.014801

>  <TransFSScore_200nM>  (55) 
0.081036999999999998

>  <TransFSScore>  (55) 
0.051130499999999995

>  <FeatureSteinScore>  (55) 
0.43659628118247168

>  <XCos_RefMols>  (55) 
x1392_0,x0874_0

>  <XCos_NumHits>  (55) 
2

>  <XCos_Score1>  (55) 
10.0186

>  <XCos_Score2>  (55) 
0.1698

>  <XCos_Score3>  (55) 
0.0169

$$$$
C#CC1(O)CCN(Cc2cccnc2)CC1
     RDKit          3D

 16 17  0  0  0  0  0  0  0  0999 V2000
    9.1192   -0.9018   26.3156 C   0  0  0  0  0  0  0  0  0  0  0  0
    8.8204   -1.9951   25.9007 C   0  0  0  0  0  0  0  0  0  0  0  0
    8.4716   -3.3509   25.3837 C   0  0  0  0  0  0  0  0  0  0  0  0
    7.9185   -3.9053   26.5016 O   0  0  0  0  0  0  0  0  0  0  0  0
    9.7198   -4.1114   24.9684 C   0  0  0  0  0  0  0  0  0  0  0  0
   10.5179   -3.2148   24.0254 C   0  0  0  0  0  0  0  0  0  0  0  0
    9.6679   -2.3720   23.1433 N   0  0  0  0  0  0  0  0  0  0  0  0
   10.3154   -1.8183   21.9495 C   0  0  0  0  0  0  0  0  0  0  0  0
   11.6028   -1.0868   22.2094 C   0  0  0  0  0  0  0  0  0  0  0  0
   12.7545   -1.3550   21.4533 C   0  0  0  0  0  0  0  0  0  0  0  0
   13.9394   -0.6688   21.7211 C   0  0  0  0  0  0  0  0  0  0  0  0
   13.9642    0.2824   22.7426 C   0  0  0  0  0  0  0  0  0  0  0  0
   12.8416    0.5356   23.4687 N   0  0  0  0  0  0  0  0  0  0  0  0
   11.6744   -0.1214   23.2257 C   0  0  0  0  0  0  0  0  0  0  0  0
    8.3386   -2.9572   22.8546 C   0  0  0  0  0  0  0  0  0  0  0  0
    7.5373   -3.2238   24.1599 C   0  0  0  0  0  0  0  0  0  0  0  0
  1  2  3  0
  2  3  1  0
  3  4  1  0
  3  5  1  0
  5  6  1  0
  6  7  1  0
  7  8  1  0
  7 15  1  0
  8  9  1  0
  9 10  2  0
 10 11  1  0
 11 12  2  0
 12 13  1  0
 13 14  2  0
 14  9  1  0
 15 16  1  0
 16  3  1  0
M  END
>  <Hit>  (56) 
Mpro-x0387_0

>  <Receptor>  (56) 
Mpro-x0874_0

>  <SCORE>  (56) 
-13.812099999999999

>  <SCORE.norm>  (56) 
-0.86325700000000005

>  <SCORE.heavy>  (56) 
16

>  <OrigSmiles>  (56) 
C#CC1(O)CCN(Cc2cccnc2)CC1

>  <SuCOS_Score>  (56) 
0.40242088637333112

>  <Max_SuCOS_Score>  (56) 
0

>  <Cum_SuCOS_Score>  (56) 
0

>  <TransFSScore_50nM>  (56) 
0.011780000000000001

>  <TransFSScore_1uM>  (56) 
0.093897999999999995

>  <TransFSScore_10nM>  (56) 
0.0147

>  <TransFSScore_200nM>  (56) 
0.089847999999999997

>  <TransFSScore>  (56) 
0.052556499999999999

>  <FeatureSteinScore>  (56) 
0.44880437352679736

>  <XCos_RefMols>  (56) 
x1392_0,x0874_0

>  <XCos_NumHits>  (56) 
2

>  <XCos_Score1>  (56) 
10.0993

>  <XCos_Score2>  (56) 
0.1712

>  <XCos_Score3>  (56) 
0.0169

$$$$
C#CC1(O)CCN(Cc2cccnn2)CC1
     RDKit          3D

 16 17  0  0  0  0  0  0  0  0999 V2000
    7.4184   -6.4580   28.0005 C   0  0  0  0  0  0  0  0  0  0  0  0
    7.9956   -6.0463   27.0250 C   0  0  0  0  0  0  0  0  0  0  0  0
    8.7040   -5.5406   25.8274 C   0  0  0  0  0  0  0  0  0  0  0  0
    9.4553   -6.5922   25.2729 O   0  0  0  0  0  0  0  0  0  0  0  0
    7.6495   -5.1191   24.7996 C   0  0  0  0  0  0  0  0  0  0  0  0
    8.2434   -4.3156   23.6410 C   0  0  0  0  0  0  0  0  0  0  0  0
    9.1672   -3.2368   24.0806 N   0  0  0  0  0  0  0  0  0  0  0  0
    9.2079   -1.9840   23.2984 C   0  0  0  0  0  0  0  0  0  0  0  0
   10.5704   -1.5334   22.8671 C   0  0  0  0  0  0  0  0  0  0  0  0
   10.9388   -0.1838   22.9211 C   0  0  0  0  0  0  0  0  0  0  0  0
   12.2268    0.1838   22.5397 C   0  0  0  0  0  0  0  0  0  0  0  0
   13.1183   -0.8007   22.1181 C   0  0  0  0  0  0  0  0  0  0  0  0
   12.7185   -2.0999   22.0878 N   0  0  0  0  0  0  0  0  0  0  0  0
   11.4845   -2.4531   22.4541 N   0  0  0  0  0  0  0  0  0  0  0  0
    9.2512   -3.0337   25.5365 C   0  0  0  0  0  0  0  0  0  0  0  0
    9.6345   -4.3586   26.2187 C   0  0  0  0  0  0  0  0  0  0  0  0
  1  2  3  0
  2  3  1  0
  3  4  1  0
  3  5  1  0
  5  6  1  0
  6  7  1  0
  7  8  1  0
  7 15  1  0
  8  9  1  0
  9 10  2  0
 10 11  1  0
 11 12  2  0
 12 13  1  0
 13 14  2  0
 14  9  1  0
 15 16  1  0
 16  3  1  0
M  END
>  <Hit>  (57) 
Mpro-x0387_0

>  <Receptor>  (57) 
Mpro-x0874_0

>  <SCORE>  (57) 
-11.0908

>  <SCORE.norm>  (57) 
-0.69317200000000001

>  <SCORE.heavy>  (57) 
16

>  <OrigSmiles>  (57) 
C#CC1(O)CCN(Cc2cccnn2)CC1

>  <SuCOS_Score>  (57) 
0.46937829073720416

>  <Max_SuCOS_Score>  (57) 
0

>  <Cum_SuCOS_Score>  (57) 
0

>  <TransFSScore_50nM>  (57) 
0.0042290000000000001

>  <TransFSScore_1uM>  (57) 
0.015497

>  <TransFSScore_10nM>  (57) 
0.013164

>  <TransFSScore_200nM>  (57) 
0.057639999999999997

>  <TransFSScore>  (57) 
0.0226325

>  <FeatureSteinScore>  (57) 
0.46302956612692137

>  <XCos_RefMols>  (57) 
x0072_0,x1382_0

>  <XCos_NumHits>  (57) 
2

>  <XCos_Score1>  (57) 
11.4289

>  <XCos_Score2>  (57) 
0.1291

>  <XCos_Score3>  (57) 
0.0113

$$$$
C#CC1(O)CCN(Cc2cccnn2)CC1
     RDKit          3D

 16 17  0  0  0  0  0  0  0  0999 V2000
    7.4631   -6.4895   28.0163 C   0  0  0  0  0  0  0  0  0  0  0  0
    8.0300   -6.0698   27.0382 C   0  0  0  0  0  0  0  0  0  0  0  0
    8.7258   -5.5547   25.8373 C   0  0  0  0  0  0  0  0  0  0  0  0
    9.4872   -6.5966   25.2782 O   0  0  0  0  0  0  0  0  0  0  0  0
    7.6609   -5.1457   24.8152 C   0  0  0  0  0  0  0  0  0  0  0  0
    8.2388   -4.3343   23.6541 C   0  0  0  0  0  0  0  0  0  0  0  0
    9.1514   -3.2443   24.0895 N   0  0  0  0  0  0  0  0  0  0  0  0
    9.1726   -1.9907   23.3079 C   0  0  0  0  0  0  0  0  0  0  0  0
   10.5261   -1.5289   22.8603 C   0  0  0  0  0  0  0  0  0  0  0  0
   10.8786   -0.1745   22.8956 C   0  0  0  0  0  0  0  0  0  0  0  0
   12.1590    0.2040   22.4994 C   0  0  0  0  0  0  0  0  0  0  0  0
   13.0589   -0.7747   22.0821 C   0  0  0  0  0  0  0  0  0  0  0  0
   12.6747   -2.0789   22.0703 N   0  0  0  0  0  0  0  0  0  0  0  0
   11.4479   -2.4425   22.4507 N   0  0  0  0  0  0  0  0  0  0  0  0
    9.2405   -3.0410   25.5451 C   0  0  0  0  0  0  0  0  0  0  0  0
    9.6437   -4.3615   26.2245 C   0  0  0  0  0  0  0  0  0  0  0  0
  1  2  3  0
  2  3  1  0
  3  4  1  0
  3  5  1  0
  5  6  1  0
  6  7  1  0
  7  8  1  0
  7 15  1  0
  8  9  1  0
  9 10  2  0
 10 11  1  0
 11 12  2  0
 12 13  1  0
 13 14  2  0
 14  9  1  0
 15 16  1  0
 16  3  1  0
M  END
>  <Hit>  (58) 
Mpro-x0387_0

>  <Receptor>  (58) 
Mpro-x0874_0

>  <SCORE>  (58) 
-11.1732

>  <SCORE.norm>  (58) 
-0.698322

>  <SCORE.heavy>  (58) 
16

>  <OrigSmiles>  (58) 
C#CC1(O)CCN(Cc2cccnn2)CC1

>  <SuCOS_Score>  (58) 
0.46311203158087566

>  <Max_SuCOS_Score>  (58) 
0

>  <Cum_SuCOS_Score>  (58) 
0

>  <TransFSScore_50nM>  (58) 
0.0041050000000000001

>  <TransFSScore_1uM>  (58) 
0.015990999999999998

>  <TransFSScore_10nM>  (58) 
0.012970000000000001

>  <TransFSScore_200nM>  (58) 
0.059547000000000003

>  <TransFSScore>  (58) 
0.02315325

>  <FeatureSteinScore>  (58) 
0.46184033903838256

>  <XCos_RefMols>  (58) 
x0072_0,x1382_0

>  <XCos_NumHits>  (58) 
2

>  <XCos_Score1>  (58) 
11.4606

>  <XCos_Score2>  (58) 
0.1295

>  <XCos_Score3>  (58) 
0.0113

$$$$
C#CC1(O)CCN(Cc2cccnn2)CC1
     RDKit          3D

 16 17  0  0  0  0  0  0  0  0999 V2000
    8.2221   -5.7184   28.6372 C   0  0  0  0  0  0  0  0  0  0  0  0
    8.6934   -5.5458   27.5407 C   0  0  0  0  0  0  0  0  0  0  0  0
    9.2718   -5.3336   26.1945 C   0  0  0  0  0  0  0  0  0  0  0  0
    9.7415   -6.5668   25.7083 O   0  0  0  0  0  0  0  0  0  0  0  0
    8.1481   -4.8570   25.2691 C   0  0  0  0  0  0  0  0  0  0  0  0
    8.6700   -4.3286   23.9316 C   0  0  0  0  0  0  0  0  0  0  0  0
    9.8164   -3.3922   24.0714 N   0  0  0  0  0  0  0  0  0  0  0  0
    9.9342   -2.2765   23.1099 C   0  0  0  0  0  0  0  0  0  0  0  0
   11.3003   -1.6744   22.9802 C   0  0  0  0  0  0  0  0  0  0  0  0
   11.6579   -0.5264   23.6973 C   0  0  0  0  0  0  0  0  0  0  0  0
   12.9493   -0.0209   23.5688 C   0  0  0  0  0  0  0  0  0  0  0  0
   13.8546   -0.6725   22.7335 C   0  0  0  0  0  0  0  0  0  0  0  0
   13.4648   -1.7882   22.0613 N   0  0  0  0  0  0  0  0  0  0  0  0
   12.2276   -2.2738   22.1847 N   0  0  0  0  0  0  0  0  0  0  0  0
   10.1669   -3.0273   25.4541 C   0  0  0  0  0  0  0  0  0  0  0  0
   10.4337   -4.3040   26.2704 C   0  0  0  0  0  0  0  0  0  0  0  0
  1  2  3  0
  2  3  1  0
  3  4  1  0
  3  5  1  0
  5  6  1  0
  6  7  1  0
  7  8  1  0
  7 15  1  0
  8  9  1  0
  9 10  2  0
 10 11  1  0
 11 12  2  0
 12 13  1  0
 13 14  2  0
 14  9  1  0
 15 16  1  0
 16  3  1  0
M  END
>  <Hit>  (59) 
Mpro-x0387_0

>  <Receptor>  (59) 
Mpro-x0387_0

>  <SCORE>  (59) 
-12.106400000000001

>  <SCORE.norm>  (59) 
-0.75665000000000004

>  <SCORE.heavy>  (59) 
16

>  <OrigSmiles>  (59) 
C#CC1(O)CCN(Cc2cccnn2)CC1

>  <SuCOS_Score>  (59) 
0.56617219716360412

>  <Max_SuCOS_Score>  (59) 
0

>  <Cum_SuCOS_Score>  (59) 
0

>  <TransFSScore_50nM>  (59) 
0.0030669999999999998

>  <TransFSScore_1uM>  (59) 
0.014935

>  <TransFSScore_10nM>  (59) 
0.0051529999999999996

>  <TransFSScore_200nM>  (59) 
0.048080999999999999

>  <TransFSScore>  (59) 
0.017808999999999998

>  <FeatureSteinScore>  (59) 
0.47824848397570352

>  <XCos_RefMols>  (59) 
x1392_0,x0104_0,x1385_0

>  <XCos_NumHits>  (59) 
3

>  <XCos_Score1>  (59) 
11.5632

>  <XCos_Score2>  (59) 
0.1960

>  <XCos_Score3>  (59) 
0.0169

$$$$
C#CC1(O)CCN(Cc2cccnn2)CC1
     RDKit          3D

 16 17  0  0  0  0  0  0  0  0999 V2000
    8.2995   -5.5189   29.0638 C   0  0  0  0  0  0  0  0  0  0  0  0
    8.6143   -5.3652   27.9098 C   0  0  0  0  0  0  0  0  0  0  0  0
    9.0008   -5.1768   26.4932 C   0  0  0  0  0  0  0  0  0  0  0  0
    9.2396   -6.4392   25.9214 O   0  0  0  0  0  0  0  0  0  0  0  0
    7.8139   -4.5427   25.7616 C   0  0  0  0  0  0  0  0  0  0  0  0
    8.1842   -4.0341   24.3671 C   0  0  0  0  0  0  0  0  0  0  0  0
    9.4422   -3.2420   24.3402 N   0  0  0  0  0  0  0  0  0  0  0  0
    9.5439   -2.1162   23.3889 C   0  0  0  0  0  0  0  0  0  0  0  0
   10.9343   -1.6433   23.0908 C   0  0  0  0  0  0  0  0  0  0  0  0
   11.4262   -0.4498   23.6328 C   0  0  0  0  0  0  0  0  0  0  0  0
   12.7356   -0.0666   23.3532 C   0  0  0  0  0  0  0  0  0  0  0  0
   13.5251   -0.8822   22.5450 C   0  0  0  0  0  0  0  0  0  0  0  0
   13.0070   -2.0359   22.0457 N   0  0  0  0  0  0  0  0  0  0  0  0
   11.7524   -2.4043   22.3139 N   0  0  0  0  0  0  0  0  0  0  0  0
   10.0414   -2.9663   25.6566 C   0  0  0  0  0  0  0  0  0  0  0  0
   10.2754   -4.2918   26.4022 C   0  0  0  0  0  0  0  0  0  0  0  0
  1  2  3  0
  2  3  1  0
  3  4  1  0
  3  5  1  0
  5  6  1  0
  6  7  1  0
  7  8  1  0
  7 15  1  0
  8  9  1  0
  9 10  2  0
 10 11  1  0
 11 12  2  0
 12 13  1  0
 13 14  2  0
 14  9  1  0
 15 16  1  0
 16  3  1  0
M  END
>  <Hit>  (60) 
Mpro-x0387_0

>  <Receptor>  (60) 
Mpro-x0387_0

>  <SCORE>  (60) 
-12.156700000000001

>  <SCORE.norm>  (60) 
-0.75979399999999997

>  <SCORE.heavy>  (60) 
16

>  <OrigSmiles>  (60) 
C#CC1(O)CCN(Cc2cccnn2)CC1

>  <SuCOS_Score>  (60) 
0.59995405849996253

>  <Max_SuCOS_Score>  (60) 
0

>  <Cum_SuCOS_Score>  (60) 
0

>  <TransFSScore_50nM>  (60) 
0.0025590000000000001

>  <TransFSScore_1uM>  (60) 
0.021408

>  <TransFSScore_10nM>  (60) 
0.0076740000000000003

>  <TransFSScore_200nM>  (60) 
0.052275000000000002

>  <TransFSScore>  (60) 
0.020979000000000001

>  <FeatureSteinScore>  (60) 
0.55494620632212532

>  <XCos_RefMols>  (60) 
x0072_0,x0387_0

>  <XCos_NumHits>  (60) 
2

>  <XCos_Score1>  (60) 
11.1338

>  <XCos_Score2>  (60) 
0.1887

>  <XCos_Score3>  (60) 
0.0169

$$$$
C#CC1(O)CCN(Cc2cccnn2)CC1
     RDKit          3D

 16 17  0  0  0  0  0  0  0  0999 V2000
   10.5435   -5.1564   25.1019 C   0  0  0  0  0  0  0  0  0  0  0  0
    9.6772   -4.3183   25.1671 C   0  0  0  0  0  0  0  0  0  0  0  0
    8.5970   -3.2969   25.2356 C   0  0  0  0  0  0  0  0  0  0  0  0
    7.9190   -3.7675   26.3186 O   0  0  0  0  0  0  0  0  0  0  0  0
    7.7497   -3.3182   23.9725 C   0  0  0  0  0  0  0  0  0  0  0  0
    8.6965   -3.2182   22.7796 C   0  0  0  0  0  0  0  0  0  0  0  0
    9.8841   -2.3585   23.0302 N   0  0  0  0  0  0  0  0  0  0  0  0
   10.5930   -1.8682   21.8440 C   0  0  0  0  0  0  0  0  0  0  0  0
   11.8388   -1.0797   22.1344 C   0  0  0  0  0  0  0  0  0  0  0  0
   11.7454    0.2464   22.5736 C   0  0  0  0  0  0  0  0  0  0  0  0
   12.9104    0.9558   22.8534 C   0  0  0  0  0  0  0  0  0  0  0  0
   14.1423    0.3281   22.6900 C   0  0  0  0  0  0  0  0  0  0  0  0
   14.1858   -0.9608   22.2640 N   0  0  0  0  0  0  0  0  0  0  0  0
   13.0728   -1.6467   21.9940 N   0  0  0  0  0  0  0  0  0  0  0  0
    9.6573   -1.2991   24.0403 C   0  0  0  0  0  0  0  0  0  0  0  0
    9.2225   -1.8979   25.4081 C   0  0  0  0  0  0  0  0  0  0  0  0
  1  2  3  0
  2  3  1  0
  3  4  1  0
  3  5  1  0
  5  6  1  0
  6  7  1  0
  7  8  1  0
  7 15  1  0
  8  9  1  0
  9 10  2  0
 10 11  1  0
 11 12  2  0
 12 13  1  0
 13 14  2  0
 14  9  1  0
 15 16  1  0
 16  3  1  0
M  END
>  <Hit>  (61) 
Mpro-x0387_0

>  <Receptor>  (61) 
Mpro-x0874_0

>  <SCORE>  (61) 
-12.3626

>  <SCORE.norm>  (61) 
-0.77266400000000002

>  <SCORE.heavy>  (61) 
16

>  <OrigSmiles>  (61) 
C#CC1(O)CCN(Cc2cccnn2)CC1

>  <SuCOS_Score>  (61) 
0.3936003404671311

>  <Max_SuCOS_Score>  (61) 
0

>  <Cum_SuCOS_Score>  (61) 
0

>  <TransFSScore_50nM>  (61) 
0.0016739999999999999

>  <TransFSScore_1uM>  (61) 
0.025107000000000001

>  <TransFSScore_10nM>  (61) 
0.061019999999999998

>  <TransFSScore_200nM>  (61) 
0.040145

>  <TransFSScore>  (61) 
0.031986500000000001

>  <FeatureSteinScore>  (61) 
0.49180413795874933

>  <XCos_RefMols>  (61) 
x0967_0,x0104_0

>  <XCos_NumHits>  (61) 
2

>  <XCos_Score1>  (61) 
10.7925

>  <XCos_Score2>  (61) 
0.1219

>  <XCos_Score3>  (61) 
0.0113

$$$$
C#CC1(O)CCN(Cc2cccnn2)CC1
     RDKit          3D

 16 17  0  0  0  0  0  0  0  0999 V2000
    8.8410   -1.8118   27.0652 C   0  0  0  0  0  0  0  0  0  0  0  0
    8.7188   -2.9467   26.6727 C   0  0  0  0  0  0  0  0  0  0  0  0
    8.5506   -4.3405   26.1790 C   0  0  0  0  0  0  0  0  0  0  0  0
    8.3348   -4.9692   27.3674 O   0  0  0  0  0  0  0  0  0  0  0  0
    9.8165   -4.8287   25.4914 C   0  0  0  0  0  0  0  0  0  0  0  0
   10.2057   -3.7864   24.4464 C   0  0  0  0  0  0  0  0  0  0  0  0
    9.0408   -3.1352   23.7899 N   0  0  0  0  0  0  0  0  0  0  0  0
    9.3056   -2.4662   22.5123 C   0  0  0  0  0  0  0  0  0  0  0  0
   10.4384   -1.4792   22.5396 C   0  0  0  0  0  0  0  0  0  0  0  0
   10.7434   -0.7914   23.7203 C   0  0  0  0  0  0  0  0  0  0  0  0
   11.8071    0.1070   23.7307 C   0  0  0  0  0  0  0  0  0  0  0  0
   12.5434    0.2997   22.5649 C   0  0  0  0  0  0  0  0  0  0  0  0
   12.2138   -0.3909   21.4429 N   0  0  0  0  0  0  0  0  0  0  0  0
   11.1953   -1.2538   21.4260 N   0  0  0  0  0  0  0  0  0  0  0  0
    7.8226   -3.9771   23.7537 C   0  0  0  0  0  0  0  0  0  0  0  0
    7.3744   -4.3947   25.1831 C   0  0  0  0  0  0  0  0  0  0  0  0
  1  2  3  0
  2  3  1  0
  3  4  1  0
  3  5  1  0
  5  6  1  0
  6  7  1  0
  7  8  1  0
  7 15  1  0
  8  9  1  0
  9 10  2  0
 10 11  1  0
 11 12  2  0
 12 13  1  0
 13 14  2  0
 14  9  1  0
 15 16  1  0
 16  3  1  0
M  END
>  <Hit>  (62) 
Mpro-x0387_0

>  <Receptor>  (62) 
Mpro-x1249_0

>  <SCORE>  (62) 
-12.394500000000001

>  <SCORE.norm>  (62) 
-0.77465700000000004

>  <SCORE.heavy>  (62) 
16

>  <OrigSmiles>  (62) 
C#CC1(O)CCN(Cc2cccnn2)CC1

>  <SuCOS_Score>  (62) 
0.50719764508657139

>  <Max_SuCOS_Score>  (62) 
0

>  <Cum_SuCOS_Score>  (62) 
0

>  <TransFSScore_50nM>  (62) 
0.0021749999999999999

>  <TransFSScore_1uM>  (62) 
0.032606000000000003

>  <TransFSScore_10nM>  (62) 
0.016187

>  <TransFSScore_200nM>  (62) 
0.035425999999999999

>  <TransFSScore>  (62) 
0.0215985

>  <FeatureSteinScore>  (62) 
0.46199004256092208

>  <XCos_RefMols>  (62) 
x1392_0,x1382_0

>  <XCos_NumHits>  (62) 
2

>  <XCos_Score1>  (62) 
11.3534

>  <XCos_Score2>  (62) 
0.1283

>  <XCos_Score3>  (62) 
0.0113

$$$$
C#CC1(O)CCN(Cc2cccnn2)CC1
     RDKit          3D

 16 17  0  0  0  0  0  0  0  0999 V2000
    8.8914   -1.7870   27.1089 C   0  0  0  0  0  0  0  0  0  0  0  0
    8.7422   -2.9104   26.6930 C   0  0  0  0  0  0  0  0  0  0  0  0
    8.5400   -4.2963   26.1901 C   0  0  0  0  0  0  0  0  0  0  0  0
    8.3290   -4.9311   27.3761 O   0  0  0  0  0  0  0  0  0  0  0  0
    9.7862   -4.8027   25.4801 C   0  0  0  0  0  0  0  0  0  0  0  0
   10.1806   -3.7591   24.4385 C   0  0  0  0  0  0  0  0  0  0  0  0
    9.0192   -3.0799   23.8044 N   0  0  0  0  0  0  0  0  0  0  0  0
    9.2787   -2.4050   22.5288 C   0  0  0  0  0  0  0  0  0  0  0  0
   10.4204   -1.4282   22.5524 C   0  0  0  0  0  0  0  0  0  0  0  0
   10.7009   -0.7023   23.7162 C   0  0  0  0  0  0  0  0  0  0  0  0
   11.7730    0.1860   23.7242 C   0  0  0  0  0  0  0  0  0  0  0  0
   12.5421    0.3309   22.5727 C   0  0  0  0  0  0  0  0  0  0  0  0
   12.2355   -0.3955   21.4668 N   0  0  0  0  0  0  0  0  0  0  0  0
   11.2090   -1.2489   21.4524 N   0  0  0  0  0  0  0  0  0  0  0  0
    7.7846   -3.8978   23.7787 C   0  0  0  0  0  0  0  0  0  0  0  0
    7.3488   -4.3192   25.2109 C   0  0  0  0  0  0  0  0  0  0  0  0
  1  2  3  0
  2  3  1  0
  3  4  1  0
  3  5  1  0
  5  6  1  0
  6  7  1  0
  7  8  1  0
  7 15  1  0
  8  9  1  0
  9 10  2  0
 10 11  1  0
 11 12  2  0
 12 13  1  0
 13 14  2  0
 14  9  1  0
 15 16  1  0
 16  3  1  0
M  END
>  <Hit>  (63) 
Mpro-x0387_0

>  <Receptor>  (63) 
Mpro-x1249_0

>  <SCORE>  (63) 
-12.4078

>  <SCORE.norm>  (63) 
-0.77548600000000001

>  <SCORE.heavy>  (63) 
16

>  <OrigSmiles>  (63) 
C#CC1(O)CCN(Cc2cccnn2)CC1

>  <SuCOS_Score>  (63) 
0.50662509092654695

>  <Max_SuCOS_Score>  (63) 
0

>  <Cum_SuCOS_Score>  (63) 
0

>  <TransFSScore_50nM>  (63) 
0.0025660000000000001

>  <TransFSScore_1uM>  (63) 
0.032996999999999999

>  <TransFSScore_10nM>  (63) 
0.016757000000000001

>  <TransFSScore_200nM>  (63) 
0.038081999999999998

>  <TransFSScore>  (63) 
0.022600499999999999

>  <FeatureSteinScore>  (63) 
0.4732298525130284

>  <XCos_RefMols>  (63) 
x1392_0,x1382_0

>  <XCos_NumHits>  (63) 
2

>  <XCos_Score1>  (63) 
11.3189

>  <XCos_Score2>  (63) 
0.1279

>  <XCos_Score3>  (63) 
0.0113

$$$$
C#CC1(O)CCN(Cc2cccnn2)CC1
     RDKit          3D

 16 17  0  0  0  0  0  0  0  0999 V2000
    8.8613   -1.7684   27.0694 C   0  0  0  0  0  0  0  0  0  0  0  0
    8.7175   -2.9027   26.6823 C   0  0  0  0  0  0  0  0  0  0  0  0
    8.5356   -4.3070   26.2246 C   0  0  0  0  0  0  0  0  0  0  0  0
    8.3049   -4.9015   27.4277 O   0  0  0  0  0  0  0  0  0  0  0  0
    9.7998   -4.8282   25.5583 C   0  0  0  0  0  0  0  0  0  0  0  0
   10.2079   -3.8186   24.4887 C   0  0  0  0  0  0  0  0  0  0  0  0
    9.0550   -3.1712   23.8077 N   0  0  0  0  0  0  0  0  0  0  0  0
    9.3357   -2.5395   22.5146 C   0  0  0  0  0  0  0  0  0  0  0  0
   10.4486   -1.5299   22.5339 C   0  0  0  0  0  0  0  0  0  0  0  0
   10.7457   -0.8332   23.7113 C   0  0  0  0  0  0  0  0  0  0  0  0
   11.7911    0.0864   23.7143 C   0  0  0  0  0  0  0  0  0  0  0  0
   12.5176    0.2910   22.5443 C   0  0  0  0  0  0  0  0  0  0  0  0
   12.1962   -0.4088   21.4256 N   0  0  0  0  0  0  0  0  0  0  0  0
   11.1952   -1.2920   21.4159 N   0  0  0  0  0  0  0  0  0  0  0  0
    7.8270   -3.9992   23.7858 C   0  0  0  0  0  0  0  0  0  0  0  0
    7.3650   -4.3736   25.2228 C   0  0  0  0  0  0  0  0  0  0  0  0
  1  2  3  0
  2  3  1  0
  3  4  1  0
  3  5  1  0
  5  6  1  0
  6  7  1  0
  7  8  1  0
  7 15  1  0
  8  9  1  0
  9 10  2  0
 10 11  1  0
 11 12  2  0
 12 13  1  0
 13 14  2  0
 14  9  1  0
 15 16  1  0
 16  3  1  0
M  END
>  <Hit>  (64) 
Mpro-x0387_0

>  <Receptor>  (64) 
Mpro-x1249_0

>  <SCORE>  (64) 
-12.431100000000001

>  <SCORE.norm>  (64) 
-0.77694300000000005

>  <SCORE.heavy>  (64) 
16

>  <OrigSmiles>  (64) 
C#CC1(O)CCN(Cc2cccnn2)CC1

>  <SuCOS_Score>  (64) 
0.50932728581313302

>  <Max_SuCOS_Score>  (64) 
0

>  <Cum_SuCOS_Score>  (64) 
0

>  <TransFSScore_50nM>  (64) 
0.0020300000000000001

>  <TransFSScore_1uM>  (64) 
0.032239999999999998

>  <TransFSScore_10nM>  (64) 
0.015684

>  <TransFSScore_200nM>  (64) 
0.033598000000000003

>  <TransFSScore>  (64) 
0.020888

>  <FeatureSteinScore>  (64) 
0.44513916925783542

>  <XCos_RefMols>  (64) 
x1392_0,x1382_0

>  <XCos_NumHits>  (64) 
2

>  <XCos_Score1>  (64) 
11.2398

>  <XCos_Score2>  (64) 
0.1270

>  <XCos_Score3>  (64) 
0.0113

$$$$
C#CC1(O)CCN(Cc2cccnn2)CC1
     RDKit          3D

 16 17  0  0  0  0  0  0  0  0999 V2000
    8.8687   -1.7897   27.0616 C   0  0  0  0  0  0  0  0  0  0  0  0
    8.7461   -2.9304   26.6862 C   0  0  0  0  0  0  0  0  0  0  0  0
    8.5743   -4.3347   26.2246 C   0  0  0  0  0  0  0  0  0  0  0  0
    8.3498   -4.9344   27.4263 O   0  0  0  0  0  0  0  0  0  0  0  0
    9.8415   -4.8443   25.5551 C   0  0  0  0  0  0  0  0  0  0  0  0
   10.2403   -3.8286   24.4879 C   0  0  0  0  0  0  0  0  0  0  0  0
    9.0815   -3.1881   23.8103 N   0  0  0  0  0  0  0  0  0  0  0  0
    9.3556   -2.5505   22.5186 C   0  0  0  0  0  0  0  0  0  0  0  0
   10.4523   -1.5234   22.5420 C   0  0  0  0  0  0  0  0  0  0  0  0
   10.7186   -0.8055   23.7140 C   0  0  0  0  0  0  0  0  0  0  0  0
   11.7496    0.1303   23.7211 C   0  0  0  0  0  0  0  0  0  0  0  0
   12.4926    0.3295   22.5606 C   0  0  0  0  0  0  0  0  0  0  0  0
   12.2011   -0.3911   21.4470 N   0  0  0  0  0  0  0  0  0  0  0  0
   11.2141   -1.2899   21.4333 N   0  0  0  0  0  0  0  0  0  0  0  0
    7.8599   -4.0254   23.7877 C   0  0  0  0  0  0  0  0  0  0  0  0
    7.4028   -4.4074   25.2243 C   0  0  0  0  0  0  0  0  0  0  0  0
  1  2  3  0
  2  3  1  0
  3  4  1  0
  3  5  1  0
  5  6  1  0
  6  7  1  0
  7  8  1  0
  7 15  1  0
  8  9  1  0
  9 10  2  0
 10 11  1  0
 11 12  2  0
 12 13  1  0
 13 14  2  0
 14  9  1  0
 15 16  1  0
 16  3  1  0
M  END
>  <Hit>  (65) 
Mpro-x0387_0

>  <Receptor>  (65) 
Mpro-x1249_0

>  <SCORE>  (65) 
-12.4375

>  <SCORE.norm>  (65) 
-0.77734499999999995

>  <SCORE.heavy>  (65) 
16

>  <OrigSmiles>  (65) 
C#CC1(O)CCN(Cc2cccnn2)CC1

>  <SuCOS_Score>  (65) 
0.51519380450798169

>  <Max_SuCOS_Score>  (65) 
0

>  <Cum_SuCOS_Score>  (65) 
0

>  <TransFSScore_50nM>  (65) 
0.0019499999999999999

>  <TransFSScore_1uM>  (65) 
0.032069

>  <TransFSScore_10nM>  (65) 
0.0155

>  <TransFSScore_200nM>  (65) 
0.033692

>  <TransFSScore>  (65) 
0.020802750000000002

>  <FeatureSteinScore>  (65) 
0.44536766108979792

>  <XCos_RefMols>  (65) 
x1392_0,x1382_0

>  <XCos_NumHits>  (65) 
2

>  <XCos_Score1>  (65) 
11.2334

>  <XCos_Score2>  (65) 
0.1269

>  <XCos_Score3>  (65) 
0.0113

$$$$
C#CC1(O)CCN(Cc2cccnn2)CC1
     RDKit          3D

 16 17  0  0  0  0  0  0  0  0999 V2000
    7.7971   -6.0665   28.5607 C   0  0  0  0  0  0  0  0  0  0  0  0
    8.3599   -5.8531   27.5157 C   0  0  0  0  0  0  0  0  0  0  0  0
    9.0511   -5.5912   26.2330 C   0  0  0  0  0  0  0  0  0  0  0  0
    9.6870   -6.7742   25.8160 O   0  0  0  0  0  0  0  0  0  0  0  0
    7.9882   -5.2324   25.1901 C   0  0  0  0  0  0  0  0  0  0  0  0
    8.5916   -4.6612   23.9055 C   0  0  0  0  0  0  0  0  0  0  0  0
    9.6203   -3.6155   24.1483 N   0  0  0  0  0  0  0  0  0  0  0  0
    9.7274   -2.4982   23.1875 C   0  0  0  0  0  0  0  0  0  0  0  0
   10.9545   -1.6479   23.3166 C   0  0  0  0  0  0  0  0  0  0  0  0
   12.0921   -1.8932   22.5384 C   0  0  0  0  0  0  0  0  0  0  0  0
   13.1979   -1.0568   22.6704 C   0  0  0  0  0  0  0  0  0  0  0  0
   13.1432    0.0059   23.5701 C   0  0  0  0  0  0  0  0  0  0  0  0
   12.0147    0.2097   24.3006 N   0  0  0  0  0  0  0  0  0  0  0  0
   10.9542   -0.5910   24.1740 N   0  0  0  0  0  0  0  0  0  0  0  0
    9.7882   -3.2112   25.5541 C   0  0  0  0  0  0  0  0  0  0  0  0
   10.0926   -4.4515   26.4124 C   0  0  0  0  0  0  0  0  0  0  0  0
  1  2  3  0
  2  3  1  0
  3  4  1  0
  3  5  1  0
  5  6  1  0
  6  7  1  0
  7  8  1  0
  7 15  1  0
  8  9  1  0
  9 10  2  0
 10 11  1  0
 11 12  2  0
 12 13  1  0
 13 14  2  0
 14  9  1  0
 15 16  1  0
 16  3  1  0
M  END
>  <Hit>  (66) 
Mpro-x0387_0

>  <Receptor>  (66) 
Mpro-x0387_0

>  <SCORE>  (66) 
-12.6518

>  <SCORE.norm>  (66) 
-0.79074

>  <SCORE.heavy>  (66) 
16

>  <OrigSmiles>  (66) 
C#CC1(O)CCN(Cc2cccnn2)CC1

>  <SuCOS_Score>  (66) 
0.55008857341293582

>  <Max_SuCOS_Score>  (66) 
0

>  <Cum_SuCOS_Score>  (66) 
0

>  <TransFSScore_50nM>  (66) 
0.0088889999999999993

>  <TransFSScore_1uM>  (66) 
0.031904000000000002

>  <TransFSScore_10nM>  (66) 
0.016972999999999999

>  <TransFSScore_200nM>  (66) 
0.041473000000000003

>  <TransFSScore>  (66) 
0.024809749999999998

>  <FeatureSteinScore>  (66) 
0.44949770354724006

>  <XCos_RefMols>  (66) 
x1392_0,x0305_0,x1385_0

>  <XCos_NumHits>  (66) 
3

>  <XCos_Score1>  (66) 
12.9497

>  <XCos_Score2>  (66) 
0.2926

>  <XCos_Score3>  (66) 
0.0226

$$$$
C#CC1(O)CCN(Cc2ccco2)CC1
     RDKit          3D

 15 16  0  0  0  0  0  0  0  0999 V2000
    8.9468   -5.0070   28.7782 C   0  0  0  0  0  0  0  0  0  0  0  0
    9.1184   -5.1364   27.5916 C   0  0  0  0  0  0  0  0  0  0  0  0
    9.3287   -5.2942   26.1411 C   0  0  0  0  0  0  0  0  0  0  0  0
    9.2207   -6.6649   25.8428 O   0  0  0  0  0  0  0  0  0  0  0  0
    8.2206   -4.5383   25.4027 C   0  0  0  0  0  0  0  0  0  0  0  0
    8.6781   -4.2213   23.9951 C   0  0  0  0  0  0  0  0  0  0  0  0
    9.7308   -3.2043   24.0697 N   0  0  0  0  0  0  0  0  0  0  0  0
   10.1844   -2.7882   22.7532 C   0  0  0  0  0  0  0  0  0  0  0  0
   11.1935   -1.7014   22.9395 C   0  0  0  0  0  0  0  0  0  0  0  0
   12.4785   -1.6969   22.4346 C   0  0  0  0  0  0  0  0  0  0  0  0
   13.0405   -0.5148   22.8660 C   0  0  0  0  0  0  0  0  0  0  0  0
   12.0661    0.1259   23.6051 C   0  0  0  0  0  0  0  0  0  0  0  0
   10.9765   -0.6068   23.6311 O   0  0  0  0  0  0  0  0  0  0  0  0
   10.8051   -3.4323   25.0619 C   0  0  0  0  0  0  0  0  0  0  0  0
   10.7507   -4.8002   25.7626 C   0  0  0  0  0  0  0  0  0  0  0  0
  1  2  3  0
  2  3  1  0
  3  4  1  0
  3  5  1  0
  5  6  1  0
  6  7  1  0
  7  8  1  0
  7 14  1  0
  8  9  1  0
  9 10  2  0
 10 11  1  0
 11 12  2  0
 12 13  1  0
 13  9  1  0
 14 15  1  0
 15  3  1  0
M  END
>  <Hit>  (67) 
Mpro-x0387_0

>  <Receptor>  (67) 
Mpro-x0387_0

>  <SCORE>  (67) 
-9.3516200000000005

>  <SCORE.norm>  (67) 
-0.62344100000000002

>  <SCORE.heavy>  (67) 
15

>  <OrigSmiles>  (67) 
C#CC1(O)CCN(Cc2ccco2)CC1

>  <SuCOS_Score>  (67) 
0.6020911680938158

>  <Max_SuCOS_Score>  (67) 
0

>  <Cum_SuCOS_Score>  (67) 
0

>  <TransFSScore_50nM>  (67) 
0.00197

>  <TransFSScore_1uM>  (67) 
0.01023

>  <TransFSScore_10nM>  (67) 
0.0056709999999999998

>  <TransFSScore_200nM>  (67) 
0.058004

>  <TransFSScore>  (67) 
0.01896875

>  <FeatureSteinScore>  (67) 
0.60647575734602932

>  <XCos_RefMols>  (67) 
x0387_0,x1392_0

>  <XCos_NumHits>  (67) 
2

>  <XCos_Score1>  (67) 
11.9095

>  <XCos_Score2>  (67) 
0.1346

>  <XCos_Score3>  (67) 
0.0113

$$$$
C#CC1(O)CCN(Cc2ccco2)CC1
     RDKit          3D

 15 16  0  0  0  0  0  0  0  0999 V2000
    8.9384   -4.9383   28.8073 C   0  0  0  0  0  0  0  0  0  0  0  0
    9.1109   -5.0811   27.6223 C   0  0  0  0  0  0  0  0  0  0  0  0
    9.3222   -5.2550   26.1738 C   0  0  0  0  0  0  0  0  0  0  0  0
    9.1772   -6.6243   25.8847 O   0  0  0  0  0  0  0  0  0  0  0  0
    8.2382   -4.4740   25.4257 C   0  0  0  0  0  0  0  0  0  0  0  0
    8.7096   -4.1799   24.0178 C   0  0  0  0  0  0  0  0  0  0  0  0
    9.7898   -3.1920   24.0893 N   0  0  0  0  0  0  0  0  0  0  0  0
   10.2598   -2.7981   22.7717 C   0  0  0  0  0  0  0  0  0  0  0  0
   11.2362   -1.6805   22.9495 C   0  0  0  0  0  0  0  0  0  0  0  0
   12.5508   -1.6814   22.5274 C   0  0  0  0  0  0  0  0  0  0  0  0
   13.0638   -0.4625   22.9150 C   0  0  0  0  0  0  0  0  0  0  0  0
   12.0332    0.2038   23.5476 C   0  0  0  0  0  0  0  0  0  0  0  0
   10.9567   -0.5485   23.5528 O   0  0  0  0  0  0  0  0  0  0  0  0
   10.8537   -3.4426   25.0872 C   0  0  0  0  0  0  0  0  0  0  0  0
   10.7587   -4.8034   25.7974 C   0  0  0  0  0  0  0  0  0  0  0  0
  1  2  3  0
  2  3  1  0
  3  4  1  0
  3  5  1  0
  5  6  1  0
  6  7  1  0
  7  8  1  0
  7 14  1  0
  8  9  1  0
  9 10  2  0
 10 11  1  0
 11 12  2  0
 12 13  1  0
 13  9  1  0
 14 15  1  0
 15  3  1  0
M  END
>  <Hit>  (68) 
Mpro-x0387_0

>  <Receptor>  (68) 
Mpro-x0387_0

>  <SCORE>  (68) 
-9.3621499999999997

>  <SCORE.norm>  (68) 
-0.624143

>  <SCORE.heavy>  (68) 
15

>  <OrigSmiles>  (68) 
C#CC1(O)CCN(Cc2ccco2)CC1

>  <SuCOS_Score>  (68) 
0.60538726704286105

>  <Max_SuCOS_Score>  (68) 
0

>  <Cum_SuCOS_Score>  (68) 
0

>  <TransFSScore_50nM>  (68) 
0.00197

>  <TransFSScore_1uM>  (68) 
0.010325000000000001

>  <TransFSScore_10nM>  (68) 
0.0053109999999999997

>  <TransFSScore_200nM>  (68) 
0.056462999999999999

>  <TransFSScore>  (68) 
0.018517249999999999

>  <FeatureSteinScore>  (68) 
0.61633121733266127

>  <XCos_RefMols>  (68) 
x0387_0,x1392_0

>  <XCos_NumHits>  (68) 
2

>  <XCos_Score1>  (68) 
11.8156

>  <XCos_Score2>  (68) 
0.1335

>  <XCos_Score3>  (68) 
0.0113

$$$$
C#CC1(O)CCN(Cc2ccco2)CC1
     RDKit          3D

 15 16  0  0  0  0  0  0  0  0999 V2000
    9.0252   -4.9004   28.7823 C   0  0  0  0  0  0  0  0  0  0  0  0
    9.1750   -5.0450   27.5944 C   0  0  0  0  0  0  0  0  0  0  0  0
    9.3575   -5.2212   26.1424 C   0  0  0  0  0  0  0  0  0  0  0  0
    9.2159   -6.5922   25.8596 O   0  0  0  0  0  0  0  0  0  0  0  0
    8.2530   -4.4494   25.4149 C   0  0  0  0  0  0  0  0  0  0  0  0
    8.6932   -4.1557   23.9968 C   0  0  0  0  0  0  0  0  0  0  0  0
    9.7679   -3.1603   24.0437 N   0  0  0  0  0  0  0  0  0  0  0  0
   10.2079   -2.7665   22.7157 C   0  0  0  0  0  0  0  0  0  0  0  0
   11.2168   -1.6751   22.8730 C   0  0  0  0  0  0  0  0  0  0  0  0
   12.5258   -1.7157   22.4358 C   0  0  0  0  0  0  0  0  0  0  0  0
   13.0768   -0.5084   22.8073 C   0  0  0  0  0  0  0  0  0  0  0  0
   12.0724    0.1912   23.4462 C   0  0  0  0  0  0  0  0  0  0  0  0
   10.9757   -0.5310   23.4701 O   0  0  0  0  0  0  0  0  0  0  0  0
   10.8538   -3.4012   25.0201 C   0  0  0  0  0  0  0  0  0  0  0  0
   10.7828   -4.7607   25.7353 C   0  0  0  0  0  0  0  0  0  0  0  0
  1  2  3  0
  2  3  1  0
  3  4  1  0
  3  5  1  0
  5  6  1  0
  6  7  1  0
  7  8  1  0
  7 14  1  0
  8  9  1  0
  9 10  2  0
 10 11  1  0
 11 12  2  0
 12 13  1  0
 13  9  1  0
 14 15  1  0
 15  3  1  0
M  END
>  <Hit>  (69) 
Mpro-x0387_0

>  <Receptor>  (69) 
Mpro-x0387_0

>  <SCORE>  (69) 
-9.3961100000000002

>  <SCORE.norm>  (69) 
-0.62640799999999996

>  <SCORE.heavy>  (69) 
15

>  <OrigSmiles>  (69) 
C#CC1(O)CCN(Cc2ccco2)CC1

>  <SuCOS_Score>  (69) 
0.60129909714917629

>  <Max_SuCOS_Score>  (69) 
0

>  <Cum_SuCOS_Score>  (69) 
0

>  <TransFSScore_50nM>  (69) 
0.00183

>  <TransFSScore_1uM>  (69) 
0.0099010000000000001

>  <TransFSScore_10nM>  (69) 
0.0053220000000000003

>  <TransFSScore_200nM>  (69) 
0.054128000000000003

>  <TransFSScore>  (69) 
0.017795249999999999

>  <FeatureSteinScore>  (69) 
0.61500472821362673

>  <XCos_RefMols>  (69) 
x0387_0,x1392_0

>  <XCos_NumHits>  (69) 
2

>  <XCos_Score1>  (69) 
11.8388

>  <XCos_Score2>  (69) 
0.1338

>  <XCos_Score3>  (69) 
0.0113

$$$$
C#CC1(O)CCN(Cc2ccco2)CC1
     RDKit          3D

 15 16  0  0  0  0  0  0  0  0999 V2000
    8.9191   -4.9116   28.7867 C   0  0  0  0  0  0  0  0  0  0  0  0
    9.0942   -5.0642   27.6033 C   0  0  0  0  0  0  0  0  0  0  0  0
    9.3076   -5.2512   26.1568 C   0  0  0  0  0  0  0  0  0  0  0  0
    9.1785   -6.6251   25.8823 O   0  0  0  0  0  0  0  0  0  0  0  0
    8.2148   -4.4907   25.4004 C   0  0  0  0  0  0  0  0  0  0  0  0
    8.6829   -4.2062   23.9894 C   0  0  0  0  0  0  0  0  0  0  0  0
    9.7517   -3.2052   24.0504 N   0  0  0  0  0  0  0  0  0  0  0  0
   10.2173   -2.8200   22.7286 C   0  0  0  0  0  0  0  0  0  0  0  0
   11.1978   -1.7044   22.8962 C   0  0  0  0  0  0  0  0  0  0  0  0
   12.5049   -1.7040   22.4516 C   0  0  0  0  0  0  0  0  0  0  0  0
   13.0257   -0.4878   22.8373 C   0  0  0  0  0  0  0  0  0  0  0  0
   12.0067    0.1758   23.4914 C   0  0  0  0  0  0  0  0  0  0  0  0
   10.9297   -0.5756   23.5107 O   0  0  0  0  0  0  0  0  0  0  0  0
   10.8183   -3.4329   25.0509 C   0  0  0  0  0  0  0  0  0  0  0  0
   10.7389   -4.7870   25.7756 C   0  0  0  0  0  0  0  0  0  0  0  0
  1  2  3  0
  2  3  1  0
  3  4  1  0
  3  5  1  0
  5  6  1  0
  6  7  1  0
  7  8  1  0
  7 14  1  0
  8  9  1  0
  9 10  2  0
 10 11  1  0
 11 12  2  0
 12 13  1  0
 13  9  1  0
 14 15  1  0
 15  3  1  0
M  END
>  <Hit>  (70) 
Mpro-x0387_0

>  <Receptor>  (70) 
Mpro-x0387_0

>  <SCORE>  (70) 
-9.4100199999999994

>  <SCORE.norm>  (70) 
-0.62733499999999998

>  <SCORE.heavy>  (70) 
15

>  <OrigSmiles>  (70) 
C#CC1(O)CCN(Cc2ccco2)CC1

>  <SuCOS_Score>  (70) 
0.59608382245389901

>  <Max_SuCOS_Score>  (70) 
0

>  <Cum_SuCOS_Score>  (70) 
0

>  <TransFSScore_50nM>  (70) 
0.0017910000000000001

>  <TransFSScore_1uM>  (70) 
0.01057

>  <TransFSScore_10nM>  (70) 
0.0056340000000000001

>  <TransFSScore_200nM>  (70) 
0.05969

>  <TransFSScore>  (70) 
0.019421250000000001

>  <FeatureSteinScore>  (70) 
0.61199782319104035

>  <XCos_RefMols>  (70) 
x0387_0,x1392_0

>  <XCos_NumHits>  (70) 
2

>  <XCos_Score1>  (70) 
11.7364

>  <XCos_Score2>  (70) 
0.1326

>  <XCos_Score3>  (70) 
0.0113

$$$$
C#CC1(O)CCN(Cc2ccco2)CC1
     RDKit          3D

 15 16  0  0  0  0  0  0  0  0999 V2000
    8.9274   -4.9351   28.7819 C   0  0  0  0  0  0  0  0  0  0  0  0
    9.1090   -5.0741   27.5978 C   0  0  0  0  0  0  0  0  0  0  0  0
    9.3309   -5.2446   26.1506 C   0  0  0  0  0  0  0  0  0  0  0  0
    9.2139   -6.6166   25.8615 O   0  0  0  0  0  0  0  0  0  0  0  0
    8.2357   -4.4851   25.3966 C   0  0  0  0  0  0  0  0  0  0  0  0
    8.7083   -4.1826   23.9908 C   0  0  0  0  0  0  0  0  0  0  0  0
    9.7689   -3.1739   24.0672 N   0  0  0  0  0  0  0  0  0  0  0  0
   10.2376   -2.7716   22.7517 C   0  0  0  0  0  0  0  0  0  0  0  0
   11.2450   -1.6832   22.9382 C   0  0  0  0  0  0  0  0  0  0  0  0
   12.5284   -1.6743   22.4293 C   0  0  0  0  0  0  0  0  0  0  0  0
   13.0892   -0.4924   22.8626 C   0  0  0  0  0  0  0  0  0  0  0  0
   12.1158    0.1439   23.6069 C   0  0  0  0  0  0  0  0  0  0  0  0
   11.0278   -0.5912   23.6340 O   0  0  0  0  0  0  0  0  0  0  0  0
   10.8324   -3.4033   25.0706 C   0  0  0  0  0  0  0  0  0  0  0  0
   10.7603   -4.7653   25.7810 C   0  0  0  0  0  0  0  0  0  0  0  0
  1  2  3  0
  2  3  1  0
  3  4  1  0
  3  5  1  0
  5  6  1  0
  6  7  1  0
  7  8  1  0
  7 14  1  0
  8  9  1  0
  9 10  2  0
 10 11  1  0
 11 12  2  0
 12 13  1  0
 13  9  1  0
 14 15  1  0
 15  3  1  0
M  END
>  <Hit>  (71) 
Mpro-x0387_0

>  <Receptor>  (71) 
Mpro-x0387_0

>  <SCORE>  (71) 
-9.4161800000000007

>  <SCORE.norm>  (71) 
-0.62774600000000003

>  <SCORE.heavy>  (71) 
15

>  <OrigSmiles>  (71) 
C#CC1(O)CCN(Cc2ccco2)CC1

>  <SuCOS_Score>  (71) 
0.60957571873586913

>  <Max_SuCOS_Score>  (71) 
0

>  <Cum_SuCOS_Score>  (71) 
0

>  <TransFSScore_50nM>  (71) 
0.001882

>  <TransFSScore_1uM>  (71) 
0.010487

>  <TransFSScore_10nM>  (71) 
0.0052430000000000003

>  <TransFSScore_200nM>  (71) 
0.058268

>  <TransFSScore>  (71) 
0.018970000000000001

>  <FeatureSteinScore>  (71) 
0.6165946627815434

>  <XCos_RefMols>  (71) 
x0387_0,x1392_0

>  <XCos_NumHits>  (71) 
2

>  <XCos_Score1>  (71) 
11.9552

>  <XCos_Score2>  (71) 
0.1351

>  <XCos_Score3>  (71) 
0.0113

$$$$
C#CC1(O)CCN(Cc2cccs2)CC1
     RDKit          3D

 15 16  0  0  0  0  0  0  0  0999 V2000
    8.5419   -2.1735   27.0394 C   0  0  0  0  0  0  0  0  0  0  0  0
    8.6455   -3.3383   26.7402 C   0  0  0  0  0  0  0  0  0  0  0  0
    8.7702   -4.7797   26.3914 C   0  0  0  0  0  0  0  0  0  0  0  0
    8.7973   -5.3075   27.6463 O   0  0  0  0  0  0  0  0  0  0  0  0
   10.0592   -5.0434   25.6283 C   0  0  0  0  0  0  0  0  0  0  0  0
   10.1148   -4.0607   24.4619 C   0  0  0  0  0  0  0  0  0  0  0  0
    8.7843   -3.7624   23.8681 N   0  0  0  0  0  0  0  0  0  0  0  0
    8.7893   -3.1970   22.5154 C   0  0  0  0  0  0  0  0  0  0  0  0
    9.6144   -1.9600   22.3515 C   0  0  0  0  0  0  0  0  0  0  0  0
    9.1362   -0.6837   22.0774 C   0  0  0  0  0  0  0  0  0  0  0  0
   10.1523    0.2738   21.9746 C   0  0  0  0  0  0  0  0  0  0  0  0
   11.4273   -0.2423   22.1693 C   0  0  0  0  0  0  0  0  0  0  0  0
   11.2909   -1.8917   22.4690 S   0  0  0  0  0  0  0  0  0  0  0  0
    7.7964   -4.8546   24.0270 C   0  0  0  0  0  0  0  0  0  0  0  0
    7.5672   -5.2045   25.5251 C   0  0  0  0  0  0  0  0  0  0  0  0
  1  2  3  0
  2  3  1  0
  3  4  1  0
  3  5  1  0
  5  6  1  0
  6  7  1  0
  7  8  1  0
  7 14  1  0
  8  9  1  0
  9 10  2  0
 10 11  1  0
 11 12  2  0
 12 13  1  0
 13  9  1  0
 14 15  1  0
 15  3  1  0
M  END
>  <Hit>  (72) 
Mpro-x0387_0

>  <Receptor>  (72) 
Mpro-x1249_0

>  <SCORE>  (72) 
-10.3383

>  <SCORE.norm>  (72) 
-0.68921900000000003

>  <SCORE.heavy>  (72) 
15

>  <OrigSmiles>  (72) 
C#CC1(O)CCN(Cc2cccs2)CC1

>  <SuCOS_Score>  (72) 
0.42199700821564307

>  <Max_SuCOS_Score>  (72) 
0

>  <Cum_SuCOS_Score>  (72) 
0

>  <TransFSScore_50nM>  (72) 
0.0016069999999999999

>  <TransFSScore_1uM>  (72) 
0.022884000000000002

>  <TransFSScore_10nM>  (72) 
0.0071739999999999998

>  <TransFSScore_200nM>  (72) 
0.019674000000000001

>  <TransFSScore>  (72) 
0.012834749999999999

>  <FeatureSteinScore>  (72) 
0.37921390018116402

>  <XCos_RefMols>  (72) 
x1392_0

>  <XCos_NumHits>  (72) 
1

>  <XCos_Score1>  (72) 
10.8060

>  <XCos_Score2>  (72) 
0.0611

>  <XCos_Score3>  (72) 
0.0056

$$$$
C#CC1(O)CCN(Cc2cccs2)CC1
     RDKit          3D

 15 16  0  0  0  0  0  0  0  0999 V2000
    9.0766   -1.4956   26.7935 C   0  0  0  0  0  0  0  0  0  0  0  0
    8.8259   -2.6005   26.3768 C   0  0  0  0  0  0  0  0  0  0  0  0
    8.5134   -3.9545   25.8442 C   0  0  0  0  0  0  0  0  0  0  0  0
    8.1261   -4.5609   27.0001 O   0  0  0  0  0  0  0  0  0  0  0  0
    9.7525   -4.6000   25.2429 C   0  0  0  0  0  0  0  0  0  0  0  0
   10.3549   -3.6084   24.2514 C   0  0  0  0  0  0  0  0  0  0  0  0
    9.3404   -2.8007   23.5232 N   0  0  0  0  0  0  0  0  0  0  0  0
    9.7882   -2.1626   22.2814 C   0  0  0  0  0  0  0  0  0  0  0  0
   11.0020   -1.2988   22.4180 C   0  0  0  0  0  0  0  0  0  0  0  0
   12.1869   -1.4276   21.7023 C   0  0  0  0  0  0  0  0  0  0  0  0
   13.1485   -0.4733   22.0545 C   0  0  0  0  0  0  0  0  0  0  0  0
   12.7252    0.4075   23.0419 C   0  0  0  0  0  0  0  0  0  0  0  0
   11.1532   -0.0016   23.4780 S   0  0  0  0  0  0  0  0  0  0  0  0
    8.0278   -3.4719   23.3793 C   0  0  0  0  0  0  0  0  0  0  0  0
    7.4200   -3.8412   24.7625 C   0  0  0  0  0  0  0  0  0  0  0  0
  1  2  3  0
  2  3  1  0
  3  4  1  0
  3  5  1  0
  5  6  1  0
  6  7  1  0
  7  8  1  0
  7 14  1  0
  8  9  1  0
  9 10  2  0
 10 11  1  0
 11 12  2  0
 12 13  1  0
 13  9  1  0
 14 15  1  0
 15  3  1  0
M  END
>  <Hit>  (73) 
Mpro-x0387_0

>  <Receptor>  (73) 
Mpro-x1249_0

>  <SCORE>  (73) 
-10.4039

>  <SCORE.norm>  (73) 
-0.69359300000000002

>  <SCORE.heavy>  (73) 
15

>  <OrigSmiles>  (73) 
C#CC1(O)CCN(Cc2cccs2)CC1

>  <SuCOS_Score>  (73) 
0.54124993091190943

>  <Max_SuCOS_Score>  (73) 
0

>  <Cum_SuCOS_Score>  (73) 
0

>  <TransFSScore_50nM>  (73) 
0.0034420000000000002

>  <TransFSScore_1uM>  (73) 
0.013644999999999999

>  <TransFSScore_10nM>  (73) 
0.030242999999999999

>  <TransFSScore_200nM>  (73) 
0.036718000000000001

>  <TransFSScore>  (73) 
0.021011999999999999

>  <FeatureSteinScore>  (73) 
0.65587573379889896

>  <XCos_RefMols>  (73) 
x1392_0,x0874_0

>  <XCos_NumHits>  (73) 
2

>  <XCos_Score1>  (73) 
12.2760

>  <XCos_Score2>  (73) 
0.2081

>  <XCos_Score3>  (73) 
0.0169

$$$$
C#CC1(O)CCN(Cc2cccs2)CC1
     RDKit          3D

 15 16  0  0  0  0  0  0  0  0999 V2000
    9.1903   -1.2436   26.9089 C   0  0  0  0  0  0  0  0  0  0  0  0
    8.8585   -2.3465   26.5474 C   0  0  0  0  0  0  0  0  0  0  0  0
    8.4358   -3.6975   26.0883 C   0  0  0  0  0  0  0  0  0  0  0  0
    8.0281   -4.2163   27.2794 O   0  0  0  0  0  0  0  0  0  0  0  0
    9.6113   -4.4626   25.4998 C   0  0  0  0  0  0  0  0  0  0  0  0
   10.2653   -3.5684   24.4500 C   0  0  0  0  0  0  0  0  0  0  0  0
    9.2990   -2.7232   23.6993 N   0  0  0  0  0  0  0  0  0  0  0  0
    9.7676   -2.1817   22.4199 C   0  0  0  0  0  0  0  0  0  0  0  0
   10.9934   -1.3285   22.5070 C   0  0  0  0  0  0  0  0  0  0  0  0
   12.1501   -1.4723   21.7493 C   0  0  0  0  0  0  0  0  0  0  0  0
   13.1325   -0.5249   22.0606 C   0  0  0  0  0  0  0  0  0  0  0  0
   12.7535    0.3654   23.0574 C   0  0  0  0  0  0  0  0  0  0  0  0
   11.1948   -0.0267   23.5529 S   0  0  0  0  0  0  0  0  0  0  0  0
    7.9376   -3.3004   23.6107 C   0  0  0  0  0  0  0  0  0  0  0  0
    7.3322   -3.5554   25.0206 C   0  0  0  0  0  0  0  0  0  0  0  0
  1  2  3  0
  2  3  1  0
  3  4  1  0
  3  5  1  0
  5  6  1  0
  6  7  1  0
  7  8  1  0
  7 14  1  0
  8  9  1  0
  9 10  2  0
 10 11  1  0
 11 12  2  0
 12 13  1  0
 13  9  1  0
 14 15  1  0
 15  3  1  0
M  END
>  <Hit>  (74) 
Mpro-x0387_0

>  <Receptor>  (74) 
Mpro-x1249_0

>  <SCORE>  (74) 
-10.405099999999999

>  <SCORE.norm>  (74) 
-0.69367199999999996

>  <SCORE.heavy>  (74) 
15

>  <OrigSmiles>  (74) 
C#CC1(O)CCN(Cc2cccs2)CC1

>  <SuCOS_Score>  (74) 
0.56198420367643087

>  <Max_SuCOS_Score>  (74) 
0

>  <Cum_SuCOS_Score>  (74) 
0

>  <TransFSScore_50nM>  (74) 
0.0040239999999999998

>  <TransFSScore_1uM>  (74) 
0.015865000000000001

>  <TransFSScore_10nM>  (74) 
0.037079000000000001

>  <TransFSScore_200nM>  (74) 
0.040462999999999999

>  <TransFSScore>  (74) 
0.024357750000000001

>  <FeatureSteinScore>  (74) 
0.63382878169396362

>  <XCos_RefMols>  (74) 
x1392_0,x0874_0

>  <XCos_NumHits>  (74) 
2

>  <XCos_Score1>  (74) 
12.0441

>  <XCos_Score2>  (74) 
0.1361

>  <XCos_Score3>  (74) 
0.0113

$$$$
C#CC1(O)CCN(Cc2cccs2)CC1
     RDKit          3D

 15 16  0  0  0  0  0  0  0  0999 V2000
    9.1243   -1.4602   26.9072 C   0  0  0  0  0  0  0  0  0  0  0  0
    8.8525   -2.5547   26.4765 C   0  0  0  0  0  0  0  0  0  0  0  0
    8.5214   -3.9122   25.9644 C   0  0  0  0  0  0  0  0  0  0  0  0
    8.1394   -4.4998   27.1318 O   0  0  0  0  0  0  0  0  0  0  0  0
    9.7480   -4.5778   25.3597 C   0  0  0  0  0  0  0  0  0  0  0  0
   10.3506   -3.6051   24.3496 C   0  0  0  0  0  0  0  0  0  0  0  0
    9.3372   -2.7966   23.6209 N   0  0  0  0  0  0  0  0  0  0  0  0
    9.7791   -2.1791   22.3667 C   0  0  0  0  0  0  0  0  0  0  0  0
   10.9944   -1.3144   22.4831 C   0  0  0  0  0  0  0  0  0  0  0  0
   12.1510   -1.4155   21.7184 C   0  0  0  0  0  0  0  0  0  0  0  0
   13.1223   -0.4682   22.0628 C   0  0  0  0  0  0  0  0  0  0  0  0
   12.7348    0.3796   23.0928 C   0  0  0  0  0  0  0  0  0  0  0  0
   11.1822   -0.0500   23.5764 S   0  0  0  0  0  0  0  0  0  0  0  0
    8.0166   -3.4564   23.4983 C   0  0  0  0  0  0  0  0  0  0  0  0
    7.4187   -3.8018   24.8920 C   0  0  0  0  0  0  0  0  0  0  0  0
  1  2  3  0
  2  3  1  0
  3  4  1  0
  3  5  1  0
  5  6  1  0
  6  7  1  0
  7  8  1  0
  7 14  1  0
  8  9  1  0
  9 10  2  0
 10 11  1  0
 11 12  2  0
 12 13  1  0
 13  9  1  0
 14 15  1  0
 15  3  1  0
M  END
>  <Hit>  (75) 
Mpro-x0387_0

>  <Receptor>  (75) 
Mpro-x1249_0

>  <SCORE>  (75) 
-10.457000000000001

>  <SCORE.norm>  (75) 
-0.69713400000000003

>  <SCORE.heavy>  (75) 
15

>  <OrigSmiles>  (75) 
C#CC1(O)CCN(Cc2cccs2)CC1

>  <SuCOS_Score>  (75) 
0.56872804899759344

>  <Max_SuCOS_Score>  (75) 
0

>  <Cum_SuCOS_Score>  (75) 
0

>  <TransFSScore_50nM>  (75) 
0.0032699999999999999

>  <TransFSScore_1uM>  (75) 
0.013832000000000001

>  <TransFSScore_10nM>  (75) 
0.029239999999999999

>  <TransFSScore_200nM>  (75) 
0.035777000000000003

>  <TransFSScore>  (75) 
0.020529749999999999

>  <FeatureSteinScore>  (75) 
0.66151608435919873

>  <XCos_RefMols>  (75) 
x1392_0,x0874_0

>  <XCos_NumHits>  (75) 
2

>  <XCos_Score1>  (75) 
12.1905

>  <XCos_Score2>  (75) 
0.2066

>  <XCos_Score3>  (75) 
0.0169

$$$$
C#CC1(O)CCN(Cc2cccs2)CC1
     RDKit          3D

 15 16  0  0  0  0  0  0  0  0999 V2000
    9.1099   -1.3902   26.9143 C   0  0  0  0  0  0  0  0  0  0  0  0
    8.8254   -2.4951   26.5201 C   0  0  0  0  0  0  0  0  0  0  0  0
    8.4950   -3.8617   26.0322 C   0  0  0  0  0  0  0  0  0  0  0  0
    8.1142   -4.4290   27.2100 O   0  0  0  0  0  0  0  0  0  0  0  0
    9.7219   -4.5369   25.4387 C   0  0  0  0  0  0  0  0  0  0  0  0
   10.3231   -3.5817   24.4113 C   0  0  0  0  0  0  0  0  0  0  0  0
    9.3086   -2.7870   23.6690 N   0  0  0  0  0  0  0  0  0  0  0  0
    9.7494   -2.1913   22.4038 C   0  0  0  0  0  0  0  0  0  0  0  0
   10.9639   -1.3236   22.5043 C   0  0  0  0  0  0  0  0  0  0  0  0
   12.1039   -1.4110   21.7133 C   0  0  0  0  0  0  0  0  0  0  0  0
   13.0792   -0.4643   22.0481 C   0  0  0  0  0  0  0  0  0  0  0  0
   12.7112    0.3693   23.0967 C   0  0  0  0  0  0  0  0  0  0  0  0
   11.1711   -0.0720   23.6087 S   0  0  0  0  0  0  0  0  0  0  0  0
    7.9885   -3.4499   23.5587 C   0  0  0  0  0  0  0  0  0  0  0  0
    7.3917   -3.7712   24.9586 C   0  0  0  0  0  0  0  0  0  0  0  0
  1  2  3  0
  2  3  1  0
  3  4  1  0
  3  5  1  0
  5  6  1  0
  6  7  1  0
  7  8  1  0
  7 14  1  0
  8  9  1  0
  9 10  2  0
 10 11  1  0
 11 12  2  0
 12 13  1  0
 13  9  1  0
 14 15  1  0
 15  3  1  0
M  END
>  <Hit>  (76) 
Mpro-x0387_0

>  <Receptor>  (76) 
Mpro-x1249_0

>  <SCORE>  (76) 
-10.468299999999999

>  <SCORE.norm>  (76) 
-0.69789000000000001

>  <SCORE.heavy>  (76) 
15

>  <OrigSmiles>  (76) 
C#CC1(O)CCN(Cc2cccs2)CC1

>  <SuCOS_Score>  (76) 
0.57198469847580968

>  <Max_SuCOS_Score>  (76) 
0

>  <Cum_SuCOS_Score>  (76) 
0

>  <TransFSScore_50nM>  (76) 
0.0034499999999999999

>  <TransFSScore_1uM>  (76) 
0.014777999999999999

>  <TransFSScore_10nM>  (76) 
0.031188

>  <TransFSScore_200nM>  (76) 
0.036151000000000003

>  <TransFSScore>  (76) 
0.021391750000000001

>  <FeatureSteinScore>  (76) 
0.65880472209404417

>  <XCos_RefMols>  (76) 
x1392_0,x0874_0

>  <XCos_NumHits>  (76) 
2

>  <XCos_Score1>  (76) 
12.1275

>  <XCos_Score2>  (76) 
0.2056

>  <XCos_Score3>  (76) 
0.0169

$$$$
C#CC1(O)CCN(Cc2cccs2)CC1
     RDKit          3D

 15 16  0  0  0  0  0  0  0  0999 V2000
   10.4338   -4.9616   25.0208 C   0  0  0  0  0  0  0  0  0  0  0  0
    9.5787   -4.1218   25.1647 C   0  0  0  0  0  0  0  0  0  0  0  0
    8.5394   -3.0719   25.3444 C   0  0  0  0  0  0  0  0  0  0  0  0
    7.9350   -3.5513   26.4664 O   0  0  0  0  0  0  0  0  0  0  0  0
    7.5945   -3.0346   24.1531 C   0  0  0  0  0  0  0  0  0  0  0  0
    8.4464   -2.9304   22.8911 C   0  0  0  0  0  0  0  0  0  0  0  0
    9.6764   -2.1131   23.0663 N   0  0  0  0  0  0  0  0  0  0  0  0
   10.3019   -1.6101   21.8393 C   0  0  0  0  0  0  0  0  0  0  0  0
   11.6982   -1.0999   22.0063 C   0  0  0  0  0  0  0  0  0  0  0  0
   12.8587   -1.7197   21.5568 C   0  0  0  0  0  0  0  0  0  0  0  0
   14.0204   -1.0030   21.8671 C   0  0  0  0  0  0  0  0  0  0  0  0
   13.7796    0.1791   22.5561 C   0  0  0  0  0  0  0  0  0  0  0  0
   12.1198    0.3327   22.7803 S   0  0  0  0  0  0  0  0  0  0  0  0
    9.5639   -1.0749   24.1169 C   0  0  0  0  0  0  0  0  0  0  0  0
    9.2199   -1.6968   25.5004 C   0  0  0  0  0  0  0  0  0  0  0  0
  1  2  3  0
  2  3  1  0
  3  4  1  0
  3  5  1  0
  5  6  1  0
  6  7  1  0
  7  8  1  0
  7 14  1  0
  8  9  1  0
  9 10  2  0
 10 11  1  0
 11 12  2  0
 12 13  1  0
 13  9  1  0
 14 15  1  0
 15  3  1  0
M  END
>  <Hit>  (77) 
Mpro-x0387_0

>  <Receptor>  (77) 
Mpro-x0874_0

>  <SCORE>  (77) 
-11.361700000000001

>  <SCORE.norm>  (77) 
-0.75744800000000001

>  <SCORE.heavy>  (77) 
15

>  <OrigSmiles>  (77) 
C#CC1(O)CCN(Cc2cccs2)CC1

>  <SuCOS_Score>  (77) 
0.39210502665761698

>  <Max_SuCOS_Score>  (77) 
0

>  <Cum_SuCOS_Score>  (77) 
0

>  <TransFSScore_50nM>  (77) 
0.0021090000000000002

>  <TransFSScore_1uM>  (77) 
0.039607000000000003

>  <TransFSScore_10nM>  (77) 
0.147258

>  <TransFSScore_200nM>  (77) 
0.035312999999999997

>  <TransFSScore>  (77) 
0.056071750000000004

>  <FeatureSteinScore>  (77) 
0.44866705043340954

>  <XCos_RefMols>  (77) 
x1392_0,x0874_0

>  <XCos_NumHits>  (77) 
2

>  <XCos_Score1>  (77) 
10.4324

>  <XCos_Score2>  (77) 
0.1179

>  <XCos_Score3>  (77) 
0.0113

$$$$
C#CC1(O)CCN(Cc2cccs2)CC1
     RDKit          3D

 15 16  0  0  0  0  0  0  0  0999 V2000
    8.6417   -2.8678   27.5766 C   0  0  0  0  0  0  0  0  0  0  0  0
    8.6838   -3.9722   27.0911 C   0  0  0  0  0  0  0  0  0  0  0  0
    8.7553   -5.3301   26.4862 C   0  0  0  0  0  0  0  0  0  0  0  0
    8.5325   -6.0790   27.6013 O   0  0  0  0  0  0  0  0  0  0  0  0
   10.1299   -5.5851   25.8871 C   0  0  0  0  0  0  0  0  0  0  0  0
   10.4537   -4.4167   24.9601 C   0  0  0  0  0  0  0  0  0  0  0  0
    9.2675   -3.8745   24.2455 N   0  0  0  0  0  0  0  0  0  0  0  0
    9.5411   -3.0743   23.0477 C   0  0  0  0  0  0  0  0  0  0  0  0
   10.5509   -1.9862   23.2330 C   0  0  0  0  0  0  0  0  0  0  0  0
   10.6781   -1.1643   24.3470 C   0  0  0  0  0  0  0  0  0  0  0  0
   11.7157   -0.2323   24.2270 C   0  0  0  0  0  0  0  0  0  0  0  0
   12.4074   -0.3187   23.0253 C   0  0  0  0  0  0  0  0  0  0  0  0
   11.7271   -1.5552   22.1104 S   0  0  0  0  0  0  0  0  0  0  0  0
    8.1870   -4.8658   24.0355 C   0  0  0  0  0  0  0  0  0  0  0  0
    7.6851   -5.4581   25.3833 C   0  0  0  0  0  0  0  0  0  0  0  0
  1  2  3  0
  2  3  1  0
  3  4  1  0
  3  5  1  0
  5  6  1  0
  6  7  1  0
  7  8  1  0
  7 14  1  0
  8  9  1  0
  9 10  2  0
 10 11  1  0
 11 12  2  0
 12 13  1  0
 13  9  1  0
 14 15  1  0
 15  3  1  0
M  END
>  <Hit>  (78) 
Mpro-x0387_0

>  <Receptor>  (78) 
Mpro-x0305_0

>  <SCORE>  (78) 
-11.4361

>  <SCORE.norm>  (78) 
-0.76240399999999997

>  <SCORE.heavy>  (78) 
15

>  <OrigSmiles>  (78) 
C#CC1(O)CCN(Cc2cccs2)CC1

>  <SuCOS_Score>  (78) 
0.53341514972877535

>  <Max_SuCOS_Score>  (78) 
0

>  <Cum_SuCOS_Score>  (78) 
0

>  <TransFSScore_50nM>  (78) 
0.0065009999999999998

>  <TransFSScore_1uM>  (78) 
0.032995999999999998

>  <TransFSScore_10nM>  (78) 
0.031712999999999998

>  <TransFSScore_200nM>  (78) 
0.114292

>  <TransFSScore>  (78) 
0.0463755

>  <FeatureSteinScore>  (78) 
0.32574748340599058

>  <XCos_RefMols>  (78) 
x1392_0,x0770_0

>  <XCos_NumHits>  (78) 
2

>  <XCos_Score1>  (78) 
11.1113

>  <XCos_Score2>  (78) 
0.1256

>  <XCos_Score3>  (78) 
0.0113

$$$$
C#CC1(O)CCN(Cc2cccs2)CC1
     RDKit          3D

 15 16  0  0  0  0  0  0  0  0999 V2000
    8.6567   -2.8671   27.5627 C   0  0  0  0  0  0  0  0  0  0  0  0
    8.7060   -3.9662   27.0660 C   0  0  0  0  0  0  0  0  0  0  0  0
    8.7460   -5.3231   26.4560 C   0  0  0  0  0  0  0  0  0  0  0  0
    8.5074   -6.0709   27.5686 O   0  0  0  0  0  0  0  0  0  0  0  0
   10.1137   -5.6070   25.8543 C   0  0  0  0  0  0  0  0  0  0  0  0
   10.4630   -4.4428   24.9313 C   0  0  0  0  0  0  0  0  0  0  0  0
    9.2887   -3.8712   24.2201 N   0  0  0  0  0  0  0  0  0  0  0  0
    9.5790   -3.0730   23.0250 C   0  0  0  0  0  0  0  0  0  0  0  0
   10.5887   -1.9868   23.2217 C   0  0  0  0  0  0  0  0  0  0  0  0
   10.6548   -1.1120   24.3002 C   0  0  0  0  0  0  0  0  0  0  0  0
   11.7098   -0.1971   24.2021 C   0  0  0  0  0  0  0  0  0  0  0  0
   12.4758   -0.3494   23.0532 C   0  0  0  0  0  0  0  0  0  0  0  0
   11.8397   -1.6232   22.1578 S   0  0  0  0  0  0  0  0  0  0  0  0
    8.1857   -4.8369   24.0077 C   0  0  0  0  0  0  0  0  0  0  0  0
    7.6719   -5.4227   25.3538 C   0  0  0  0  0  0  0  0  0  0  0  0
  1  2  3  0
  2  3  1  0
  3  4  1  0
  3  5  1  0
  5  6  1  0
  6  7  1  0
  7  8  1  0
  7 14  1  0
  8  9  1  0
  9 10  2  0
 10 11  1  0
 11 12  2  0
 12 13  1  0
 13  9  1  0
 14 15  1  0
 15  3  1  0
M  END
>  <Hit>  (79) 
Mpro-x0387_0

>  <Receptor>  (79) 
Mpro-x0305_0

>  <SCORE>  (79) 
-11.4558

>  <SCORE.norm>  (79) 
-0.76371800000000001

>  <SCORE.heavy>  (79) 
15

>  <OrigSmiles>  (79) 
C#CC1(O)CCN(Cc2cccs2)CC1

>  <SuCOS_Score>  (79) 
0.54217337597334769

>  <Max_SuCOS_Score>  (79) 
0

>  <Cum_SuCOS_Score>  (79) 
0

>  <TransFSScore_50nM>  (79) 
0.0067450000000000001

>  <TransFSScore_1uM>  (79) 
0.031696000000000002

>  <TransFSScore_10nM>  (79) 
0.028614000000000001

>  <TransFSScore_200nM>  (79) 
0.10426299999999999

>  <TransFSScore>  (79) 
0.0428295

>  <FeatureSteinScore>  (79) 
0.32910437181026025

>  <XCos_RefMols>  (79) 
x1392_0,x0770_0

>  <XCos_NumHits>  (79) 
2

>  <XCos_Score1>  (79) 
11.1687

>  <XCos_Score2>  (79) 
0.1262

>  <XCos_Score3>  (79) 
0.0113

$$$$
C#CC1(O)CCN(Cc2cccs2)CC1
     RDKit          3D

 15 16  0  0  0  0  0  0  0  0999 V2000
    9.4866   -0.9787   26.5756 C   0  0  0  0  0  0  0  0  0  0  0  0
    9.1229   -2.0492   26.1527 C   0  0  0  0  0  0  0  0  0  0  0  0
    8.6871   -3.3665   25.6148 C   0  0  0  0  0  0  0  0  0  0  0  0
    8.1257   -3.8882   26.7403 O   0  0  0  0  0  0  0  0  0  0  0  0
    9.8809   -4.1792   25.1376 C   0  0  0  0  0  0  0  0  0  0  0  0
   10.6898   -3.2984   24.1892 C   0  0  0  0  0  0  0  0  0  0  0  0
    9.8549   -2.3887   23.3604 N   0  0  0  0  0  0  0  0  0  0  0  0
   10.4875   -1.8456   22.1544 C   0  0  0  0  0  0  0  0  0  0  0  0
   11.7964   -1.1583   22.3835 C   0  0  0  0  0  0  0  0  0  0  0  0
   13.0123   -1.4897   21.7965 C   0  0  0  0  0  0  0  0  0  0  0  0
   14.0656   -0.6664   22.2114 C   0  0  0  0  0  0  0  0  0  0  0  0
   13.6841    0.3130   23.1198 C   0  0  0  0  0  0  0  0  0  0  0  0
   12.0347    0.1543   23.4079 S   0  0  0  0  0  0  0  0  0  0  0  0
    8.4846   -2.8923   23.1091 C   0  0  0  0  0  0  0  0  0  0  0  0
    7.7160   -3.1449   24.4375 C   0  0  0  0  0  0  0  0  0  0  0  0
  1  2  3  0
  2  3  1  0
  3  4  1  0
  3  5  1  0
  5  6  1  0
  6  7  1  0
  7  8  1  0
  7 14  1  0
  8  9  1  0
  9 10  2  0
 10 11  1  0
 11 12  2  0
 12 13  1  0
 13  9  1  0
 14 15  1  0
 15  3  1  0
M  END
>  <Hit>  (80) 
Mpro-x0387_0

>  <Receptor>  (80) 
Mpro-x0305_0

>  <SCORE>  (80) 
-11.4655

>  <SCORE.norm>  (80) 
-0.76436800000000005

>  <SCORE.heavy>  (80) 
15

>  <OrigSmiles>  (80) 
C#CC1(O)CCN(Cc2cccs2)CC1

>  <SuCOS_Score>  (80) 
0.47395847767999411

>  <Max_SuCOS_Score>  (80) 
0

>  <Cum_SuCOS_Score>  (80) 
0

>  <TransFSScore_50nM>  (80) 
0.005424

>  <TransFSScore_1uM>  (80) 
0.012678999999999999

>  <TransFSScore_10nM>  (80) 
0.042293999999999998

>  <TransFSScore_200nM>  (80) 
0.043579

>  <TransFSScore>  (80) 
0.025994

>  <FeatureSteinScore>  (80) 
0.40476531412360423

>  <XCos_RefMols>  (80) 
x1392_0,x0874_0

>  <XCos_NumHits>  (80) 
2

>  <XCos_Score1>  (80) 
10.0668

>  <XCos_Score2>  (80) 
0.1137

>  <XCos_Score3>  (80) 
0.0113

$$$$
C#CC1(O)CCN(Cc2cccs2)CC1
     RDKit          3D

 15 16  0  0  0  0  0  0  0  0999 V2000
   10.5642   -5.1563   25.0503 C   0  0  0  0  0  0  0  0  0  0  0  0
    9.6914   -4.3371   25.2062 C   0  0  0  0  0  0  0  0  0  0  0  0
    8.6012   -3.3413   25.3920 C   0  0  0  0  0  0  0  0  0  0  0  0
    8.0186   -3.8596   26.5082 O   0  0  0  0  0  0  0  0  0  0  0  0
    7.6583   -3.3405   24.1985 C   0  0  0  0  0  0  0  0  0  0  0  0
    8.5068   -3.1835   22.9397 C   0  0  0  0  0  0  0  0  0  0  0  0
    9.6946   -2.3081   23.1251 N   0  0  0  0  0  0  0  0  0  0  0  0
   10.2972   -1.7644   21.9041 C   0  0  0  0  0  0  0  0  0  0  0  0
   11.6744   -1.2057   22.0750 C   0  0  0  0  0  0  0  0  0  0  0  0
   12.8497   -1.7475   21.5670 C   0  0  0  0  0  0  0  0  0  0  0  0
   13.9870   -1.0014   21.8978 C   0  0  0  0  0  0  0  0  0  0  0  0
   13.7122    0.1263   22.6611 C   0  0  0  0  0  0  0  0  0  0  0  0
   12.0526    0.1952   22.9256 S   0  0  0  0  0  0  0  0  0  0  0  0
    9.5286   -1.2858   24.1842 C   0  0  0  0  0  0  0  0  0  0  0  0
    9.2126   -1.9358   25.5614 C   0  0  0  0  0  0  0  0  0  0  0  0
  1  2  3  0
  2  3  1  0
  3  4  1  0
  3  5  1  0
  5  6  1  0
  6  7  1  0
  7  8  1  0
  7 14  1  0
  8  9  1  0
  9 10  2  0
 10 11  1  0
 11 12  2  0
 12 13  1  0
 13  9  1  0
 14 15  1  0
 15  3  1  0
M  END
>  <Hit>  (81) 
Mpro-x0387_0

>  <Receptor>  (81) 
Mpro-x0874_0

>  <SCORE>  (81) 
-11.544600000000001

>  <SCORE.norm>  (81) 
-0.76964200000000005

>  <SCORE.heavy>  (81) 
15

>  <OrigSmiles>  (81) 
C#CC1(O)CCN(Cc2cccs2)CC1

>  <SuCOS_Score>  (81) 
0.42664689871189609

>  <Max_SuCOS_Score>  (81) 
0

>  <Cum_SuCOS_Score>  (81) 
0

>  <TransFSScore_50nM>  (81) 
0.0015280000000000001

>  <TransFSScore_1uM>  (81) 
0.030537999999999999

>  <TransFSScore_10nM>  (81) 
0.110207

>  <TransFSScore_200nM>  (81) 
0.031522000000000001

>  <TransFSScore>  (81) 
0.043448749999999994

>  <FeatureSteinScore>  (81) 
0.45988147003497243

>  <XCos_RefMols>  (81) 
x1392_0,x0874_0

>  <XCos_NumHits>  (81) 
2

>  <XCos_Score1>  (81) 
10.5833

>  <XCos_Score2>  (81) 
0.1196

>  <XCos_Score3>  (81) 
0.0113

$$$$
C#CC1(O)CCN(Cc2ccn[nH]2)CC1
     RDKit          3D

 15 16  0  0  0  0  0  0  0  0999 V2000
    7.6277   -6.3425   27.5648 C   0  0  0  0  0  0  0  0  0  0  0  0
    8.1570   -5.9437   26.5575 C   0  0  0  0  0  0  0  0  0  0  0  0
    8.8072   -5.4540   25.3210 C   0  0  0  0  0  0  0  0  0  0  0  0
    9.5440   -6.5087   24.7528 O   0  0  0  0  0  0  0  0  0  0  0  0
    7.7046   -5.0612   24.3330 C   0  0  0  0  0  0  0  0  0  0  0  0
    8.2422   -4.2783   23.1337 C   0  0  0  0  0  0  0  0  0  0  0  0
    9.1710   -3.1809   23.5125 N   0  0  0  0  0  0  0  0  0  0  0  0
    9.1682   -1.9482   22.6992 C   0  0  0  0  0  0  0  0  0  0  0  0
   10.5023   -1.3022   22.5002 C   0  0  0  0  0  0  0  0  0  0  0  0
   11.2196   -0.5899   23.4450 C   0  0  0  0  0  0  0  0  0  0  0  0
   12.3927   -0.2451   22.7994 C   0  0  0  0  0  0  0  0  0  0  0  0
   12.3607   -0.7356   21.5462 N   0  0  0  0  0  0  0  0  0  0  0  0
   11.2198   -1.3772   21.3646 N   0  0  0  0  0  0  0  0  0  0  0  0
    9.3159   -2.9472   24.9589 C   0  0  0  0  0  0  0  0  0  0  0  0
    9.7418   -4.2556   25.6493 C   0  0  0  0  0  0  0  0  0  0  0  0
  1  2  3  0
  2  3  1  0
  3  4  1  0
  3  5  1  0
  5  6  1  0
  6  7  1  0
  7  8  1  0
  7 14  1  0
  8  9  1  0
  9 10  2  0
 10 11  1  0
 11 12  2  0
 12 13  1  0
 13  9  1  0
 14 15  1  0
 15  3  1  0
M  END
>  <Hit>  (82) 
Mpro-x0387_0

>  <Receptor>  (82) 
Mpro-x0874_0

>  <SCORE>  (82) 
-10.395099999999999

>  <SCORE.norm>  (82) 
-0.69300700000000004

>  <SCORE.heavy>  (82) 
15

>  <OrigSmiles>  (82) 
C#CC1(O)CCN(Cc2ccn[nH]2)CC1

>  <SuCOS_Score>  (82) 
0.37568009738723923

>  <Max_SuCOS_Score>  (82) 
0

>  <Cum_SuCOS_Score>  (82) 
0

>  <TransFSScore_50nM>  (82) 
0.0033110000000000001

>  <TransFSScore_1uM>  (82) 
0.031341000000000001

>  <TransFSScore_10nM>  (82) 
0.013245

>  <TransFSScore_200nM>  (82) 
0.031137999999999999

>  <TransFSScore>  (82) 
0.019758749999999999

>  <FeatureSteinScore>  (82) 
0.30604010230668194

>  <XCos_RefMols>  (82) 
x1392_0,x1382_0

>  <XCos_NumHits>  (82) 
2

>  <XCos_Score1>  (82) 
10.7351

>  <XCos_Score2>  (82) 
0.0607

>  <XCos_Score3>  (82) 
0.0056

$$$$
C#CC1(O)CCN(Cc2ccn[nH]2)CC1
     RDKit          3D

 15 16  0  0  0  0  0  0  0  0999 V2000
   10.5590   -5.2736   25.1399 C   0  0  0  0  0  0  0  0  0  0  0  0
    9.6662   -4.4655   25.2237 C   0  0  0  0  0  0  0  0  0  0  0  0
    8.5564   -3.4810   25.3418 C   0  0  0  0  0  0  0  0  0  0  0  0
    7.9286   -3.9888   26.4382 O   0  0  0  0  0  0  0  0  0  0  0  0
    7.6706   -3.5117   24.1056 C   0  0  0  0  0  0  0  0  0  0  0  0
    8.5754   -3.3641   22.8853 C   0  0  0  0  0  0  0  0  0  0  0  0
    9.7427   -2.4709   23.1117 N   0  0  0  0  0  0  0  0  0  0  0  0
   10.3929   -1.9381   21.9106 C   0  0  0  0  0  0  0  0  0  0  0  0
   11.7187   -1.2879   22.1485 C   0  0  0  0  0  0  0  0  0  0  0  0
   12.9207   -1.6793   21.5997 C   0  0  0  0  0  0  0  0  0  0  0  0
   13.8271   -0.7705   22.0990 C   0  0  0  0  0  0  0  0  0  0  0  0
   13.1903    0.1074   22.8980 N   0  0  0  0  0  0  0  0  0  0  0  0
   11.9040   -0.2063   22.9287 N   0  0  0  0  0  0  0  0  0  0  0  0
    9.5149   -1.4338   24.1446 C   0  0  0  0  0  0  0  0  0  0  0  0
    9.1422   -2.0653   25.5161 C   0  0  0  0  0  0  0  0  0  0  0  0
  1  2  3  0
  2  3  1  0
  3  4  1  0
  3  5  1  0
  5  6  1  0
  6  7  1  0
  7  8  1  0
  7 14  1  0
  8  9  1  0
  9 10  2  0
 10 11  1  0
 11 12  2  0
 12 13  1  0
 13  9  1  0
 14 15  1  0
 15  3  1  0
M  END
>  <Hit>  (83) 
Mpro-x0387_0

>  <Receptor>  (83) 
Mpro-x0874_0

>  <SCORE>  (83) 
-10.4505

>  <SCORE.norm>  (83) 
-0.69669999999999999

>  <SCORE.heavy>  (83) 
15

>  <OrigSmiles>  (83) 
C#CC1(O)CCN(Cc2ccn[nH]2)CC1

>  <SuCOS_Score>  (83) 
0.41217345720334569

>  <Max_SuCOS_Score>  (83) 
0

>  <Cum_SuCOS_Score>  (83) 
0

>  <TransFSScore_50nM>  (83) 
0.00053700000000000004

>  <TransFSScore_1uM>  (83) 
0.047438000000000001

>  <TransFSScore_10nM>  (83) 
0.013447000000000001

>  <TransFSScore_200nM>  (83) 
0.025798000000000001

>  <TransFSScore>  (83) 
0.021805000000000001

>  <FeatureSteinScore>  (83) 
0.37969254278792597

>  <XCos_RefMols>  (83) 
x1392_0,x0874_0

>  <XCos_NumHits>  (83) 
2

>  <XCos_Score1>  (83) 
9.9545

>  <XCos_Score2>  (83) 
0.0562

>  <XCos_Score3>  (83) 
0.0056

$$$$
C#CC1(O)CCN(Cc2ccn[nH]2)CC1
     RDKit          3D

 15 16  0  0  0  0  0  0  0  0999 V2000
    8.7616   -2.2000   27.1726 C   0  0  0  0  0  0  0  0  0  0  0  0
    8.7860   -3.3514   26.8110 C   0  0  0  0  0  0  0  0  0  0  0  0
    8.8303   -4.7750   26.3798 C   0  0  0  0  0  0  0  0  0  0  0  0
    8.7254   -5.3763   27.5970 O   0  0  0  0  0  0  0  0  0  0  0  0
   10.1499   -5.0926   25.6930 C   0  0  0  0  0  0  0  0  0  0  0  0
   10.3636   -4.0505   24.5984 C   0  0  0  0  0  0  0  0  0  0  0  0
    9.1061   -3.6151   23.9344 N   0  0  0  0  0  0  0  0  0  0  0  0
    9.2535   -2.9735   22.6245 C   0  0  0  0  0  0  0  0  0  0  0  0
   10.1917   -1.8077   22.5967 C   0  0  0  0  0  0  0  0  0  0  0  0
   10.6196   -1.0826   23.6887 C   0  0  0  0  0  0  0  0  0  0  0  0
   11.4818   -0.1438   23.1561 C   0  0  0  0  0  0  0  0  0  0  0  0
   11.5610   -0.3062   21.8199 N   0  0  0  0  0  0  0  0  0  0  0  0
   10.7756   -1.3178   21.4885 N   0  0  0  0  0  0  0  0  0  0  0  0
    8.0319   -4.6348   23.9534 C   0  0  0  0  0  0  0  0  0  0  0  0
    7.6672   -5.0535   25.4063 C   0  0  0  0  0  0  0  0  0  0  0  0
  1  2  3  0
  2  3  1  0
  3  4  1  0
  3  5  1  0
  5  6  1  0
  6  7  1  0
  7  8  1  0
  7 14  1  0
  8  9  1  0
  9 10  2  0
 10 11  1  0
 11 12  2  0
 12 13  1  0
 13  9  1  0
 14 15  1  0
 15  3  1  0
M  END
>  <Hit>  (84) 
Mpro-x0387_0

>  <Receptor>  (84) 
Mpro-x1249_0

>  <SCORE>  (84) 
-11.976900000000001

>  <SCORE.norm>  (84) 
-0.79845900000000003

>  <SCORE.heavy>  (84) 
15

>  <OrigSmiles>  (84) 
C#CC1(O)CCN(Cc2ccn[nH]2)CC1

>  <SuCOS_Score>  (84) 
0.46612427339094881

>  <Max_SuCOS_Score>  (84) 
0

>  <Cum_SuCOS_Score>  (84) 
0

>  <TransFSScore_50nM>  (84) 
0.00066

>  <TransFSScore_1uM>  (84) 
0.056036999999999997

>  <TransFSScore_10nM>  (84) 
0.0066940000000000003

>  <TransFSScore_200nM>  (84) 
0.064460000000000003

>  <TransFSScore>  (84) 
0.031962749999999998

>  <FeatureSteinScore>  (84) 
0.25417289773005891

>  <XCos_RefMols>  (84) 
x1392_0

>  <XCos_NumHits>  (84) 
1

>  <XCos_Score1>  (84) 
10.0714

>  <XCos_Score2>  (84) 
0.0000

>  <XCos_Score3>  (84) 
0.0000

$$$$
C#CC1(O)CCN(Cc2ccn[nH]2)CC1
     RDKit          3D

 15 16  0  0  0  0  0  0  0  0999 V2000
    8.7422   -2.2208   27.1480 C   0  0  0  0  0  0  0  0  0  0  0  0
    8.7545   -3.3710   26.7821 C   0  0  0  0  0  0  0  0  0  0  0  0
    8.7886   -4.7915   26.3397 C   0  0  0  0  0  0  0  0  0  0  0  0
    8.7037   -5.4016   27.5541 O   0  0  0  0  0  0  0  0  0  0  0  0
   10.0955   -5.1063   25.6277 C   0  0  0  0  0  0  0  0  0  0  0  0
   10.2920   -4.0565   24.5373 C   0  0  0  0  0  0  0  0  0  0  0  0
    9.0240   -3.6140   23.8985 N   0  0  0  0  0  0  0  0  0  0  0  0
    9.1499   -2.9629   22.5911 C   0  0  0  0  0  0  0  0  0  0  0  0
   10.1026   -1.8093   22.5514 C   0  0  0  0  0  0  0  0  0  0  0  0
   10.5512   -1.0880   23.6377 C   0  0  0  0  0  0  0  0  0  0  0  0
   11.4198   -0.1613   23.0944 C   0  0  0  0  0  0  0  0  0  0  0  0
   11.4830   -0.3269   21.7578 N   0  0  0  0  0  0  0  0  0  0  0  0
   10.6812   -1.3288   21.4363 N   0  0  0  0  0  0  0  0  0  0  0  0
    7.9484   -4.6319   23.9287 C   0  0  0  0  0  0  0  0  0  0  0  0
    7.6082   -5.0606   25.3845 C   0  0  0  0  0  0  0  0  0  0  0  0
  1  2  3  0
  2  3  1  0
  3  4  1  0
  3  5  1  0
  5  6  1  0
  6  7  1  0
  7  8  1  0
  7 14  1  0
  8  9  1  0
  9 10  2  0
 10 11  1  0
 11 12  2  0
 12 13  1  0
 13  9  1  0
 14 15  1  0
 15  3  1  0
M  END
>  <Hit>  (85) 
Mpro-x0387_0

>  <Receptor>  (85) 
Mpro-x1249_0

>  <SCORE>  (85) 
-12.1183

>  <SCORE.norm>  (85) 
-0.80788499999999996

>  <SCORE.heavy>  (85) 
15

>  <OrigSmiles>  (85) 
C#CC1(O)CCN(Cc2ccn[nH]2)CC1

>  <SuCOS_Score>  (85) 
0.44652316087627653

>  <Max_SuCOS_Score>  (85) 
0

>  <Cum_SuCOS_Score>  (85) 
0

>  <TransFSScore_50nM>  (85) 
0.00071100000000000004

>  <TransFSScore_1uM>  (85) 
0.057050999999999998

>  <TransFSScore_10nM>  (85) 
0.0073010000000000002

>  <TransFSScore_200nM>  (85) 
0.066161999999999999

>  <TransFSScore>  (85) 
0.032806249999999995

>  <FeatureSteinScore>  (85) 
0.25586631209578942

>  <XCos_RefMols>  (85) 
x1392_0

>  <XCos_NumHits>  (85) 
1

>  <XCos_Score1>  (85) 
10.1699

>  <XCos_Score2>  (85) 
0.0000

>  <XCos_Score3>  (85) 
0.0000

$$$$
C#CC1(O)CCN(Cc2ccn[nH]2)CC1
     RDKit          3D

 15 16  0  0  0  0  0  0  0  0999 V2000
    8.7251   -2.2476   27.1617 C   0  0  0  0  0  0  0  0  0  0  0  0
    8.7439   -3.4042   26.8169 C   0  0  0  0  0  0  0  0  0  0  0  0
    8.7877   -4.8289   26.3890 C   0  0  0  0  0  0  0  0  0  0  0  0
    8.6995   -5.4271   27.6090 O   0  0  0  0  0  0  0  0  0  0  0  0
   10.0999   -5.1440   25.6871 C   0  0  0  0  0  0  0  0  0  0  0  0
   10.2967   -4.1042   24.5871 C   0  0  0  0  0  0  0  0  0  0  0  0
    9.0298   -3.6748   23.9373 N   0  0  0  0  0  0  0  0  0  0  0  0
    9.1592   -3.0363   22.6240 C   0  0  0  0  0  0  0  0  0  0  0  0
   10.0785   -1.8559   22.5858 C   0  0  0  0  0  0  0  0  0  0  0  0
   10.4992   -1.1179   23.6720 C   0  0  0  0  0  0  0  0  0  0  0  0
   11.3441   -0.1685   23.1305 C   0  0  0  0  0  0  0  0  0  0  0  0
   11.4206   -0.3373   21.7950 N   0  0  0  0  0  0  0  0  0  0  0  0
   10.6501   -1.3631   21.4725 N   0  0  0  0  0  0  0  0  0  0  0  0
    7.9593   -4.6980   23.9722 C   0  0  0  0  0  0  0  0  0  0  0  0
    7.6138   -5.1138   25.4305 C   0  0  0  0  0  0  0  0  0  0  0  0
  1  2  3  0
  2  3  1  0
  3  4  1  0
  3  5  1  0
  5  6  1  0
  6  7  1  0
  7  8  1  0
  7 14  1  0
  8  9  1  0
  9 10  2  0
 10 11  1  0
 11 12  2  0
 12 13  1  0
 13  9  1  0
 14 15  1  0
 15  3  1  0
M  END
>  <Hit>  (86) 
Mpro-x0387_0

>  <Receptor>  (86) 
Mpro-x1249_0

>  <SCORE>  (86) 
-12.227600000000001

>  <SCORE.norm>  (86) 
-0.81517099999999998

>  <SCORE.heavy>  (86) 
15

>  <OrigSmiles>  (86) 
C#CC1(O)CCN(Cc2ccn[nH]2)CC1

>  <SuCOS_Score>  (86) 
0.44153042321368408

>  <Max_SuCOS_Score>  (86) 
0

>  <Cum_SuCOS_Score>  (86) 
0

>  <TransFSScore_50nM>  (86) 
0.00069700000000000003

>  <TransFSScore_1uM>  (86) 
0.060089999999999998

>  <TransFSScore_10nM>  (86) 
0.0065209999999999999

>  <TransFSScore_200nM>  (86) 
0.067791000000000004

>  <TransFSScore>  (86) 
0.033774750000000006

>  <FeatureSteinScore>  (86) 
0.24191426387710052

>  <XCos_RefMols>  (86) 
x1392_0

>  <XCos_NumHits>  (86) 
1

>  <XCos_Score1>  (86) 
10.0908

>  <XCos_Score2>  (86) 
0.0000

>  <XCos_Score3>  (86) 
0.0000

$$$$
C#CC1(O)CCN(Cc2ccn[nH]2)CC1
     RDKit          3D

 15 16  0  0  0  0  0  0  0  0999 V2000
    8.7410   -2.2419   27.1457 C   0  0  0  0  0  0  0  0  0  0  0  0
    8.7745   -3.4020   26.8140 C   0  0  0  0  0  0  0  0  0  0  0  0
    8.8002   -4.8287   26.3915 C   0  0  0  0  0  0  0  0  0  0  0  0
    8.7022   -5.4212   27.6136 O   0  0  0  0  0  0  0  0  0  0  0  0
   10.1092   -5.1637   25.6929 C   0  0  0  0  0  0  0  0  0  0  0  0
   10.3216   -4.1307   24.5895 C   0  0  0  0  0  0  0  0  0  0  0  0
    9.0615   -3.6871   23.9360 N   0  0  0  0  0  0  0  0  0  0  0  0
    9.2014   -3.0552   22.6205 C   0  0  0  0  0  0  0  0  0  0  0  0
   10.1110   -1.8672   22.5864 C   0  0  0  0  0  0  0  0  0  0  0  0
   10.5400   -1.1404   23.6769 C   0  0  0  0  0  0  0  0  0  0  0  0
   11.3706   -0.1773   23.1375 C   0  0  0  0  0  0  0  0  0  0  0  0
   11.4312   -0.3278   21.7989 N   0  0  0  0  0  0  0  0  0  0  0  0
   10.6645   -1.3552   21.4726 N   0  0  0  0  0  0  0  0  0  0  0  0
    7.9775   -4.6959   23.9728 C   0  0  0  0  0  0  0  0  0  0  0  0
    7.6241   -5.1017   25.4321 C   0  0  0  0  0  0  0  0  0  0  0  0
  1  2  3  0
  2  3  1  0
  3  4  1  0
  3  5  1  0
  5  6  1  0
  6  7  1  0
  7  8  1  0
  7 14  1  0
  8  9  1  0
  9 10  2  0
 10 11  1  0
 11 12  2  0
 12 13  1  0
 13  9  1  0
 14 15  1  0
 15  3  1  0
M  END
>  <Hit>  (87) 
Mpro-x0387_0

>  <Receptor>  (87) 
Mpro-x1249_0

>  <SCORE>  (87) 
-12.238899999999999

>  <SCORE.norm>  (87) 
-0.81592600000000004

>  <SCORE.heavy>  (87) 
15

>  <OrigSmiles>  (87) 
C#CC1(O)CCN(Cc2ccn[nH]2)CC1

>  <SuCOS_Score>  (87) 
0.44430939254825697

>  <Max_SuCOS_Score>  (87) 
0

>  <Cum_SuCOS_Score>  (87) 
0

>  <TransFSScore_50nM>  (87) 
0.00065899999999999997

>  <TransFSScore_1uM>  (87) 
0.060998999999999998

>  <TransFSScore_10nM>  (87) 
0.0062570000000000004

>  <TransFSScore_200nM>  (87) 
0.065896999999999997

>  <TransFSScore>  (87) 
0.033452999999999997

>  <FeatureSteinScore>  (87) 
0.23837421692729135

>  <XCos_RefMols>  (87) 
x1392_0

>  <XCos_NumHits>  (87) 
1

>  <XCos_Score1>  (87) 
10.0239

>  <XCos_Score2>  (87) 
0.0000

>  <XCos_Score3>  (87) 
0.0000

$$$$
C#CC1(O)CCN(Cc2ccn[nH]2)CC1
     RDKit          3D

 15 16  0  0  0  0  0  0  0  0999 V2000
    8.6762   -2.2637   27.1593 C   0  0  0  0  0  0  0  0  0  0  0  0
    8.7083   -3.4240   26.8280 C   0  0  0  0  0  0  0  0  0  0  0  0
    8.7513   -4.8485   26.3998 C   0  0  0  0  0  0  0  0  0  0  0  0
    8.6494   -5.4471   27.6186 O   0  0  0  0  0  0  0  0  0  0  0  0
   10.0690   -5.1678   25.7103 C   0  0  0  0  0  0  0  0  0  0  0  0
   10.2800   -4.1281   24.6129 C   0  0  0  0  0  0  0  0  0  0  0  0
    9.0209   -3.6940   23.9512 N   0  0  0  0  0  0  0  0  0  0  0  0
    9.1650   -3.0553   22.6396 C   0  0  0  0  0  0  0  0  0  0  0  0
   10.0783   -1.8698   22.6137 C   0  0  0  0  0  0  0  0  0  0  0  0
   10.5077   -1.1506   23.7090 C   0  0  0  0  0  0  0  0  0  0  0  0
   11.3420   -0.1869   23.1764 C   0  0  0  0  0  0  0  0  0  0  0  0
   11.4043   -0.3298   21.8372 N   0  0  0  0  0  0  0  0  0  0  0  0
   10.6351   -1.3531   21.5037 N   0  0  0  0  0  0  0  0  0  0  0  0
    7.9466   -4.7135   23.9752 C   0  0  0  0  0  0  0  0  0  0  0  0
    7.5856   -5.1289   25.4299 C   0  0  0  0  0  0  0  0  0  0  0  0
  1  2  3  0
  2  3  1  0
  3  4  1  0
  3  5  1  0
  5  6  1  0
  6  7  1  0
  7  8  1  0
  7 14  1  0
  8  9  1  0
  9 10  2  0
 10 11  1  0
 11 12  2  0
 12 13  1  0
 13  9  1  0
 14 15  1  0
 15  3  1  0
M  END
>  <Hit>  (88) 
Mpro-x0387_0

>  <Receptor>  (88) 
Mpro-x1249_0

>  <SCORE>  (88) 
-12.249000000000001

>  <SCORE.norm>  (88) 
-0.81659800000000005

>  <SCORE.heavy>  (88) 
15

>  <OrigSmiles>  (88) 
C#CC1(O)CCN(Cc2ccn[nH]2)CC1

>  <SuCOS_Score>  (88) 
0.43545751028505242

>  <Max_SuCOS_Score>  (88) 
0

>  <Cum_SuCOS_Score>  (88) 
0

>  <TransFSScore_50nM>  (88) 
0.00065700000000000003

>  <TransFSScore_1uM>  (88) 
0.061829000000000002

>  <TransFSScore_10nM>  (88) 
0.0064209999999999996

>  <TransFSScore_200nM>  (88) 
0.067909999999999998

>  <TransFSScore>  (88) 
0.034204249999999999

>  <FeatureSteinScore>  (88) 
0.24022659656458023

>  <XCos_RefMols>  (88) 
x1392_0

>  <XCos_NumHits>  (88) 
1

>  <XCos_Score1>  (88) 
10.1468

>  <XCos_Score2>  (88) 
0.0573

>  <XCos_Score3>  (88) 
0.0056

$$$$
C#CC1(O)CCN(Cc2ccn[nH]2)CC1
     RDKit          3D

 15 16  0  0  0  0  0  0  0  0999 V2000
   10.5798   -5.0741   25.0550 C   0  0  0  0  0  0  0  0  0  0  0  0
    9.7351   -4.2133   25.1059 C   0  0  0  0  0  0  0  0  0  0  0  0
    8.7049   -3.1422   25.1833 C   0  0  0  0  0  0  0  0  0  0  0  0
    8.0074   -3.5864   26.2651 O   0  0  0  0  0  0  0  0  0  0  0  0
    7.8549   -3.1152   23.9221 C   0  0  0  0  0  0  0  0  0  0  0  0
    8.8029   -3.0528   22.7274 C   0  0  0  0  0  0  0  0  0  0  0  0
   10.0311   -2.2533   22.9805 N   0  0  0  0  0  0  0  0  0  0  0  0
   10.7574   -1.7884   21.7949 C   0  0  0  0  0  0  0  0  0  0  0  0
   12.1038   -1.1969   22.0734 C   0  0  0  0  0  0  0  0  0  0  0  0
   12.3543    0.0937   22.4892 C   0  0  0  0  0  0  0  0  0  0  0  0
   13.7274    0.1441   22.6313 C   0  0  0  0  0  0  0  0  0  0  0  0
   14.2608   -1.0539   22.3178 N   0  0  0  0  0  0  0  0  0  0  0  0
   13.2692   -1.8620   21.9806 N   0  0  0  0  0  0  0  0  0  0  0  0
    9.8577   -1.1904   23.9975 C   0  0  0  0  0  0  0  0  0  0  0  0
    9.3969   -1.7758   25.3628 C   0  0  0  0  0  0  0  0  0  0  0  0
  1  2  3  0
  2  3  1  0
  3  4  1  0
  3  5  1  0
  5  6  1  0
  6  7  1  0
  7  8  1  0
  7 14  1  0
  8  9  1  0
  9 10  2  0
 10 11  1  0
 11 12  2  0
 12 13  1  0
 13  9  1  0
 14 15  1  0
 15  3  1  0
M  END
>  <Hit>  (89) 
Mpro-x0387_0

>  <Receptor>  (89) 
Mpro-x0874_0

>  <SCORE>  (89) 
-12.517200000000001

>  <SCORE.norm>  (89) 
-0.83447800000000005

>  <SCORE.heavy>  (89) 
15

>  <OrigSmiles>  (89) 
C#CC1(O)CCN(Cc2ccn[nH]2)CC1

>  <SuCOS_Score>  (89) 
0.37598440081123452

>  <Max_SuCOS_Score>  (89) 
0

>  <Cum_SuCOS_Score>  (89) 
0

>  <TransFSScore_50nM>  (89) 
0.0025829999999999998

>  <TransFSScore_1uM>  (89) 
0.046542

>  <TransFSScore_10nM>  (89) 
0.015755000000000002

>  <TransFSScore_200nM>  (89) 
0.019643999999999998

>  <TransFSScore>  (89) 
0.021131

>  <FeatureSteinScore>  (89) 
0.32701257282290958

>  <XCos_RefMols>  (89) 
x0967_0

>  <XCos_NumHits>  (89) 
1

>  <XCos_Score1>  (89) 
9.5440

>  <XCos_Score2>  (89) 
0.1078

>  <XCos_Score3>  (89) 
0.0113

$$$$
C#CC1(O)CCN(Cc2ccn[nH]2)CC1
     RDKit          3D

 15 16  0  0  0  0  0  0  0  0999 V2000
    8.5215   -5.6756   27.7226 C   0  0  0  0  0  0  0  0  0  0  0  0
    8.9691   -5.3656   26.6467 C   0  0  0  0  0  0  0  0  0  0  0  0
    9.5188   -4.9849   25.3260 C   0  0  0  0  0  0  0  0  0  0  0  0
    9.7514   -6.1554   24.5816 O   0  0  0  0  0  0  0  0  0  0  0  0
    8.4552   -4.1618   24.5928 C   0  0  0  0  0  0  0  0  0  0  0  0
    9.0054   -3.4755   23.3411 C   0  0  0  0  0  0  0  0  0  0  0  0
   10.2964   -2.7749   23.5712 N   0  0  0  0  0  0  0  0  0  0  0  0
   10.5616   -1.5319   22.8192 C   0  0  0  0  0  0  0  0  0  0  0  0
   12.0012   -1.2352   22.5489 C   0  0  0  0  0  0  0  0  0  0  0  0
   12.7431   -1.7285   21.4922 C   0  0  0  0  0  0  0  0  0  0  0  0
   14.0058   -1.2151   21.6969 C   0  0  0  0  0  0  0  0  0  0  0  0
   13.9926   -0.4685   22.8157 N   0  0  0  0  0  0  0  0  0  0  0  0
   12.7801   -0.4768   23.3447 N   0  0  0  0  0  0  0  0  0  0  0  0
   10.7607   -2.7476   24.9680 C   0  0  0  0  0  0  0  0  0  0  0  0
   10.8408   -4.1872   25.5091 C   0  0  0  0  0  0  0  0  0  0  0  0
  1  2  3  0
  2  3  1  0
  3  4  1  0
  3  5  1  0
  5  6  1  0
  6  7  1  0
  7  8  1  0
  7 14  1  0
  8  9  1  0
  9 10  2  0
 10 11  1  0
 11 12  2  0
 12 13  1  0
 13  9  1  0
 14 15  1  0
 15  3  1  0
M  END
>  <Hit>  (90) 
Mpro-x0387_0

>  <Receptor>  (90) 
Mpro-x0387_0

>  <SCORE>  (90) 
-12.5783

>  <SCORE.norm>  (90) 
-0.83855400000000002

>  <SCORE.heavy>  (90) 
15

>  <OrigSmiles>  (90) 
C#CC1(O)CCN(Cc2ccn[nH]2)CC1

>  <SuCOS_Score>  (90) 
0.45029014833572972

>  <Max_SuCOS_Score>  (90) 
0

>  <Cum_SuCOS_Score>  (90) 
0

>  <TransFSScore_50nM>  (90) 
0.0096179999999999998

>  <TransFSScore_1uM>  (90) 
0.039216000000000001

>  <TransFSScore_10nM>  (90) 
0.0021840000000000002

>  <TransFSScore_200nM>  (90) 
0.043539000000000001

>  <TransFSScore>  (90) 
0.023639250000000001

>  <FeatureSteinScore>  (90) 
0.38668248212473028

>  <XCos_RefMols>  (90) 
x1392_0

>  <XCos_NumHits>  (90) 
1

>  <XCos_Score1>  (90) 
10.2154

>  <XCos_Score2>  (90) 
0.1731

>  <XCos_Score3>  (90) 
0.0169

$$$$
C#CC1(O)CCN(Cc2ccn[nH]2)CC1
     RDKit          3D

 15 16  0  0  0  0  0  0  0  0999 V2000
    8.5985   -5.5133   27.7935 C   0  0  0  0  0  0  0  0  0  0  0  0
    9.0326   -5.2392   26.7025 C   0  0  0  0  0  0  0  0  0  0  0  0
    9.5659   -4.9028   25.3631 C   0  0  0  0  0  0  0  0  0  0  0  0
    9.7828   -6.0972   24.6528 O   0  0  0  0  0  0  0  0  0  0  0  0
    8.4962   -4.0976   24.6189 C   0  0  0  0  0  0  0  0  0  0  0  0
    9.0323   -3.4537   23.3390 C   0  0  0  0  0  0  0  0  0  0  0  0
   10.3296   -2.7529   23.5294 N   0  0  0  0  0  0  0  0  0  0  0  0
   10.5902   -1.5353   22.7353 C   0  0  0  0  0  0  0  0  0  0  0  0
   12.0293   -1.2365   22.4646 C   0  0  0  0  0  0  0  0  0  0  0  0
   12.7730   -1.7324   21.4104 C   0  0  0  0  0  0  0  0  0  0  0  0
   14.0343   -1.2154   21.6136 C   0  0  0  0  0  0  0  0  0  0  0  0
   14.0188   -0.4643   22.7294 N   0  0  0  0  0  0  0  0  0  0  0  0
   12.8060   -0.4731   23.2578 N   0  0  0  0  0  0  0  0  0  0  0  0
   10.8132   -2.6842   24.9182 C   0  0  0  0  0  0  0  0  0  0  0  0
   10.8940   -4.1065   25.5031 C   0  0  0  0  0  0  0  0  0  0  0  0
  1  2  3  0
  2  3  1  0
  3  4  1  0
  3  5  1  0
  5  6  1  0
  6  7  1  0
  7  8  1  0
  7 14  1  0
  8  9  1  0
  9 10  2  0
 10 11  1  0
 11 12  2  0
 12 13  1  0
 13  9  1  0
 14 15  1  0
 15  3  1  0
M  END
>  <Hit>  (91) 
Mpro-x0387_0

>  <Receptor>  (91) 
Mpro-x0387_0

>  <SCORE>  (91) 
-12.6221

>  <SCORE.norm>  (91) 
-0.84147000000000005

>  <SCORE.heavy>  (91) 
15

>  <OrigSmiles>  (91) 
C#CC1(O)CCN(Cc2ccn[nH]2)CC1

>  <SuCOS_Score>  (91) 
0.44283285358624369

>  <Max_SuCOS_Score>  (91) 
0

>  <Cum_SuCOS_Score>  (91) 
0

>  <TransFSScore_50nM>  (91) 
0.011376000000000001

>  <TransFSScore_1uM>  (91) 
0.037578

>  <TransFSScore_10nM>  (91) 
0.0022629999999999998

>  <TransFSScore_200nM>  (91) 
0.048236000000000001

>  <TransFSScore>  (91) 
0.02486325

>  <FeatureSteinScore>  (91) 
0.38509342938110902

>  <XCos_RefMols>  (91) 
x1392_0

>  <XCos_NumHits>  (91) 
1

>  <XCos_Score1>  (91) 
10.1251

>  <XCos_Score2>  (91) 
0.1716

>  <XCos_Score3>  (91) 
0.0169

$$$$
C#CC1(O)CCN(Cc2ccncc2)CC1
     RDKit          3D

 16 17  0  0  0  0  0  0  0  0999 V2000
    7.5369   -6.3043   27.9732 C   0  0  0  0  0  0  0  0  0  0  0  0
    8.0857   -5.9773   26.9504 C   0  0  0  0  0  0  0  0  0  0  0  0
    8.7572   -5.5770   25.6996 C   0  0  0  0  0  0  0  0  0  0  0  0
    9.4924   -6.6896   25.2565 O   0  0  0  0  0  0  0  0  0  0  0  0
    7.6749   -5.2390   24.6669 C   0  0  0  0  0  0  0  0  0  0  0  0
    8.2342   -4.5264   23.4339 C   0  0  0  0  0  0  0  0  0  0  0  0
    9.1943   -3.4400   23.7600 N   0  0  0  0  0  0  0  0  0  0  0  0
    9.2443   -2.2645   22.8663 C   0  0  0  0  0  0  0  0  0  0  0  0
   10.5174   -1.4667   22.9130 C   0  0  0  0  0  0  0  0  0  0  0  0
   10.7452   -0.5655   23.9631 C   0  0  0  0  0  0  0  0  0  0  0  0
   11.9203    0.1893   23.9795 C   0  0  0  0  0  0  0  0  0  0  0  0
   12.8353    0.0538   22.9813 N   0  0  0  0  0  0  0  0  0  0  0  0
   12.6349   -0.8085   21.9477 C   0  0  0  0  0  0  0  0  0  0  0  0
   11.4731   -1.5821   21.8926 C   0  0  0  0  0  0  0  0  0  0  0  0
    9.3133   -3.1100   25.1900 C   0  0  0  0  0  0  0  0  0  0  0  0
    9.6987   -4.3730   25.9815 C   0  0  0  0  0  0  0  0  0  0  0  0
  1  2  3  0
  2  3  1  0
  3  4  1  0
  3  5  1  0
  5  6  1  0
  6  7  1  0
  7  8  1  0
  7 15  1  0
  8  9  1  0
  9 10  2  0
 10 11  1  0
 11 12  2  0
 12 13  1  0
 13 14  2  0
 14  9  1  0
 15 16  1  0
 16  3  1  0
M  END
>  <Hit>  (92) 
Mpro-x0387_0

>  <Receptor>  (92) 
Mpro-x1249_0

>  <SCORE>  (92) 
-11.0397

>  <SCORE.norm>  (92) 
-0.68997799999999998

>  <SCORE.heavy>  (92) 
16

>  <OrigSmiles>  (92) 
C#CC1(O)CCN(Cc2ccncc2)CC1

>  <SuCOS_Score>  (92) 
0.49100025961687432

>  <Max_SuCOS_Score>  (92) 
0

>  <Cum_SuCOS_Score>  (92) 
0

>  <TransFSScore_50nM>  (92) 
0.029189

>  <TransFSScore_1uM>  (92) 
0.040300000000000002

>  <TransFSScore_10nM>  (92) 
0.010664999999999999

>  <TransFSScore_200nM>  (92) 
0.056959999999999997

>  <TransFSScore>  (92) 
0.034278499999999996

>  <FeatureSteinScore>  (92) 
0.55051859268499315

>  <XCos_RefMols>  (92) 
x1392_0,x1382_0

>  <XCos_NumHits>  (92) 
2

>  <XCos_Score1>  (92) 
13.3043

>  <XCos_Score2>  (92) 
0.3007

>  <XCos_Score3>  (92) 
0.0226

$$$$
C#CC1(O)CCN(Cc2ccncc2)CC1
     RDKit          3D

 16 17  0  0  0  0  0  0  0  0999 V2000
    7.5886   -6.4357   27.9919 C   0  0  0  0  0  0  0  0  0  0  0  0
    8.1282   -6.0767   26.9749 C   0  0  0  0  0  0  0  0  0  0  0  0
    8.7880   -5.6376   25.7310 C   0  0  0  0  0  0  0  0  0  0  0  0
    9.5380   -6.7283   25.2593 O   0  0  0  0  0  0  0  0  0  0  0  0
    7.6962   -5.2923   24.7108 C   0  0  0  0  0  0  0  0  0  0  0  0
    8.2392   -4.5430   23.4924 C   0  0  0  0  0  0  0  0  0  0  0  0
    9.1842   -3.4500   23.8396 N   0  0  0  0  0  0  0  0  0  0  0  0
    9.2125   -2.2535   22.9730 C   0  0  0  0  0  0  0  0  0  0  0  0
   10.4913   -1.4640   22.9975 C   0  0  0  0  0  0  0  0  0  0  0  0
   10.7155   -0.5184   24.0085 C   0  0  0  0  0  0  0  0  0  0  0  0
   11.8964    0.2277   24.0036 C   0  0  0  0  0  0  0  0  0  0  0  0
   12.8204    0.0408   23.0220 N   0  0  0  0  0  0  0  0  0  0  0  0
   12.6236   -0.8653   22.0259 C   0  0  0  0  0  0  0  0  0  0  0  0
   11.4563   -1.6320   21.9932 C   0  0  0  0  0  0  0  0  0  0  0  0
    9.3045   -3.1513   25.2763 C   0  0  0  0  0  0  0  0  0  0  0  0
    9.7125   -4.4262   26.0368 C   0  0  0  0  0  0  0  0  0  0  0  0
  1  2  3  0
  2  3  1  0
  3  4  1  0
  3  5  1  0
  5  6  1  0
  6  7  1  0
  7  8  1  0
  7 15  1  0
  8  9  1  0
  9 10  2  0
 10 11  1  0
 11 12  2  0
 12 13  1  0
 13 14  2  0
 14  9  1  0
 15 16  1  0
 16  3  1  0
M  END
>  <Hit>  (93) 
Mpro-x0387_0

>  <Receptor>  (93) 
Mpro-x1249_0

>  <SCORE>  (93) 
-11.0471

>  <SCORE.norm>  (93) 
-0.69044399999999995

>  <SCORE.heavy>  (93) 
16

>  <OrigSmiles>  (93) 
C#CC1(O)CCN(Cc2ccncc2)CC1

>  <SuCOS_Score>  (93) 
0.501247625540157

>  <Max_SuCOS_Score>  (93) 
0

>  <Cum_SuCOS_Score>  (93) 
0

>  <TransFSScore_50nM>  (93) 
0.031788999999999998

>  <TransFSScore_1uM>  (93) 
0.040404000000000002

>  <TransFSScore_10nM>  (93) 
0.011112

>  <TransFSScore_200nM>  (93) 
0.057791000000000002

>  <TransFSScore>  (93) 
0.035274

>  <FeatureSteinScore>  (93) 
0.54436696342491431

>  <XCos_RefMols>  (93) 
x1392_0,x1382_0

>  <XCos_NumHits>  (93) 
2

>  <XCos_Score1>  (93) 
13.2264

>  <XCos_Score2>  (93) 
0.2989

>  <XCos_Score3>  (93) 
0.0226

$$$$
C#CC1(O)CCN(Cc2ccncc2)CC1
     RDKit          3D

 16 17  0  0  0  0  0  0  0  0999 V2000
    7.5775   -6.3775   28.0011 C   0  0  0  0  0  0  0  0  0  0  0  0
    8.1174   -6.0268   26.9815 C   0  0  0  0  0  0  0  0  0  0  0  0
    8.7776   -5.5980   25.7342 C   0  0  0  0  0  0  0  0  0  0  0  0
    9.5127   -6.6986   25.2618 O   0  0  0  0  0  0  0  0  0  0  0  0
    7.6861   -5.2416   24.7175 C   0  0  0  0  0  0  0  0  0  0  0  0
    8.2334   -4.5012   23.4955 C   0  0  0  0  0  0  0  0  0  0  0  0
    9.1928   -3.4189   23.8370 N   0  0  0  0  0  0  0  0  0  0  0  0
    9.2321   -2.2246   22.9680 C   0  0  0  0  0  0  0  0  0  0  0  0
   10.5333   -1.4721   22.9568 C   0  0  0  0  0  0  0  0  0  0  0  0
   10.7806   -0.4794   23.9159 C   0  0  0  0  0  0  0  0  0  0  0  0
   11.9827    0.2309   23.8771 C   0  0  0  0  0  0  0  0  0  0  0  0
   12.9051   -0.0362   22.9127 N   0  0  0  0  0  0  0  0  0  0  0  0
   12.6863   -0.9895   21.9665 C   0  0  0  0  0  0  0  0  0  0  0  0
   11.4973   -1.7228   21.9689 C   0  0  0  0  0  0  0  0  0  0  0  0
    9.3222   -3.1189   25.2727 C   0  0  0  0  0  0  0  0  0  0  0  0
    9.7178   -4.3972   26.0341 C   0  0  0  0  0  0  0  0  0  0  0  0
  1  2  3  0
  2  3  1  0
  3  4  1  0
  3  5  1  0
  5  6  1  0
  6  7  1  0
  7  8  1  0
  7 15  1  0
  8  9  1  0
  9 10  2  0
 10 11  1  0
 11 12  2  0
 12 13  1  0
 13 14  2  0
 14  9  1  0
 15 16  1  0
 16  3  1  0
M  END
>  <Hit>  (94) 
Mpro-x0387_0

>  <Receptor>  (94) 
Mpro-x1249_0

>  <SCORE>  (94) 
-11.064

>  <SCORE.norm>  (94) 
-0.69149799999999995

>  <SCORE.heavy>  (94) 
16

>  <OrigSmiles>  (94) 
C#CC1(O)CCN(Cc2ccncc2)CC1

>  <SuCOS_Score>  (94) 
0.50858125954629485

>  <Max_SuCOS_Score>  (94) 
0

>  <Cum_SuCOS_Score>  (94) 
0

>  <TransFSScore_50nM>  (94) 
0.034994999999999998

>  <TransFSScore_1uM>  (94) 
0.042380000000000001

>  <TransFSScore_10nM>  (94) 
0.011419

>  <TransFSScore_200nM>  (94) 
0.063541

>  <TransFSScore>  (94) 
0.03808375

>  <FeatureSteinScore>  (94) 
0.55668293766013333

>  <XCos_RefMols>  (94) 
x1392_0,x1382_0

>  <XCos_NumHits>  (94) 
2

>  <XCos_Score1>  (94) 
13.2927

>  <XCos_Score2>  (94) 
0.3004

>  <XCos_Score3>  (94) 
0.0226

$$$$
C#CC1(O)CCN(Cc2ccncc2)CC1
     RDKit          3D

 16 17  0  0  0  0  0  0  0  0999 V2000
    7.2590   -5.9338   26.7499 C   0  0  0  0  0  0  0  0  0  0  0  0
    7.9675   -5.5128   25.8695 C   0  0  0  0  0  0  0  0  0  0  0  0
    8.8342   -4.9978   24.7929 C   0  0  0  0  0  0  0  0  0  0  0  0
    9.5566   -6.0935   24.2906 O   0  0  0  0  0  0  0  0  0  0  0  0
    7.9336   -4.4328   23.6876 C   0  0  0  0  0  0  0  0  0  0  0  0
    8.7059   -3.6030   22.6602 C   0  0  0  0  0  0  0  0  0  0  0  0
    9.6734   -2.6537   23.2694 N   0  0  0  0  0  0  0  0  0  0  0  0
    9.9221   -1.3731   22.5757 C   0  0  0  0  0  0  0  0  0  0  0  0
   11.3548   -0.9194   22.5434 C   0  0  0  0  0  0  0  0  0  0  0  0
   11.7759    0.1409   23.3590 C   0  0  0  0  0  0  0  0  0  0  0  0
   13.1038    0.5700   23.2989 C   0  0  0  0  0  0  0  0  0  0  0  0
   13.9810   -0.0341   22.4518 N   0  0  0  0  0  0  0  0  0  0  0  0
   13.5958   -1.0603   21.6451 C   0  0  0  0  0  0  0  0  0  0  0  0
   12.2771   -1.5202   21.6737 C   0  0  0  0  0  0  0  0  0  0  0  0
    9.6061   -2.5369   24.7357 C   0  0  0  0  0  0  0  0  0  0  0  0
    9.7969   -3.9248   25.3739 C   0  0  0  0  0  0  0  0  0  0  0  0
  1  2  3  0
  2  3  1  0
  3  4  1  0
  3  5  1  0
  5  6  1  0
  6  7  1  0
  7  8  1  0
  7 15  1  0
  8  9  1  0
  9 10  2  0
 10 11  1  0
 11 12  2  0
 12 13  1  0
 13 14  2  0
 14  9  1  0
 15 16  1  0
 16  3  1  0
M  END
>  <Hit>  (95) 
Mpro-x0387_0

>  <Receptor>  (95) 
Mpro-x1249_0

>  <SCORE>  (95) 
-13.053100000000001

>  <SCORE.norm>  (95) 
-0.81581899999999996

>  <SCORE.heavy>  (95) 
16

>  <OrigSmiles>  (95) 
C#CC1(O)CCN(Cc2ccncc2)CC1

>  <SuCOS_Score>  (95) 
0.4381048583063174

>  <Max_SuCOS_Score>  (95) 
0

>  <Cum_SuCOS_Score>  (95) 
0

>  <TransFSScore_50nM>  (95) 
0.018756999999999999

>  <TransFSScore_1uM>  (95) 
0.046550000000000001

>  <TransFSScore_10nM>  (95) 
0.013636000000000001

>  <TransFSScore_200nM>  (95) 
0.062275999999999998

>  <TransFSScore>  (95) 
0.035304749999999996

>  <FeatureSteinScore>  (95) 
0.48344540034669164

>  <XCos_RefMols>  (95) 
x1392_0,x0874_0

>  <XCos_NumHits>  (95) 
2

>  <XCos_Score1>  (95) 
11.3268

>  <XCos_Score2>  (95) 
0.0640

>  <XCos_Score3>  (95) 
0.0056

$$$$
C#CC1(O)CCN(Cc2ccncc2)CC1
     RDKit          3D

 16 17  0  0  0  0  0  0  0  0999 V2000
    7.4628   -6.0408   26.8411 C   0  0  0  0  0  0  0  0  0  0  0  0
    8.1039   -5.6279   25.9069 C   0  0  0  0  0  0  0  0  0  0  0  0
    8.8883   -5.1229   24.7644 C   0  0  0  0  0  0  0  0  0  0  0  0
    9.5166   -6.2342   24.1772 O   0  0  0  0  0  0  0  0  0  0  0  0
    7.9135   -4.4993   23.7579 C   0  0  0  0  0  0  0  0  0  0  0  0
    8.6212   -3.6772   22.6789 C   0  0  0  0  0  0  0  0  0  0  0  0
    9.6782   -2.7797   23.2135 N   0  0  0  0  0  0  0  0  0  0  0  0
    9.9137   -1.4945   22.5236 C   0  0  0  0  0  0  0  0  0  0  0  0
   11.3347   -1.0047   22.5302 C   0  0  0  0  0  0  0  0  0  0  0  0
   11.7038    0.0733   23.3477 C   0  0  0  0  0  0  0  0  0  0  0  0
   13.0216    0.5357   23.3237 C   0  0  0  0  0  0  0  0  0  0  0  0
   13.9393   -0.0534   22.5095 N   0  0  0  0  0  0  0  0  0  0  0  0
   13.6049   -1.0962   21.7016 C   0  0  0  0  0  0  0  0  0  0  0  0
   12.2980   -1.5894   21.6947 C   0  0  0  0  0  0  0  0  0  0  0  0
    9.7504   -2.6929   24.6816 C   0  0  0  0  0  0  0  0  0  0  0  0
    9.9428   -4.1010   25.2736 C   0  0  0  0  0  0  0  0  0  0  0  0
  1  2  3  0
  2  3  1  0
  3  4  1  0
  3  5  1  0
  5  6  1  0
  6  7  1  0
  7  8  1  0
  7 15  1  0
  8  9  1  0
  9 10  2  0
 10 11  1  0
 11 12  2  0
 12 13  1  0
 13 14  2  0
 14  9  1  0
 15 16  1  0
 16  3  1  0
M  END
>  <Hit>  (96) 
Mpro-x0387_0

>  <Receptor>  (96) 
Mpro-x1249_0

>  <SCORE>  (96) 
-14.0189

>  <SCORE.norm>  (96) 
-0.87618099999999999

>  <SCORE.heavy>  (96) 
16

>  <OrigSmiles>  (96) 
C#CC1(O)CCN(Cc2ccncc2)CC1

>  <SuCOS_Score>  (96) 
0.4389450622859582

>  <Max_SuCOS_Score>  (96) 
0

>  <Cum_SuCOS_Score>  (96) 
0

>  <TransFSScore_50nM>  (96) 
0.026166999999999999

>  <TransFSScore_1uM>  (96) 
0.049457000000000001

>  <TransFSScore_10nM>  (96) 
0.013134

>  <TransFSScore_200nM>  (96) 
0.050358

>  <TransFSScore>  (96) 
0.034779000000000004

>  <FeatureSteinScore>  (96) 
0.46398951657347942

>  <XCos_RefMols>  (96) 
x1392_0,x0874_0

>  <XCos_NumHits>  (96) 
2

>  <XCos_Score1>  (96) 
11.4358

>  <XCos_Score2>  (96) 
0.0646

>  <XCos_Score3>  (96) 
0.0056

$$$$
C#CC1(O)CCN(Cc2ccncc2)CC1
     RDKit          3D

 16 17  0  0  0  0  0  0  0  0999 V2000
    7.7082   -6.0004   27.1359 C   0  0  0  0  0  0  0  0  0  0  0  0
    8.3069   -5.6074   26.1656 C   0  0  0  0  0  0  0  0  0  0  0  0
    9.0389   -5.1264   24.9789 C   0  0  0  0  0  0  0  0  0  0  0  0
    9.6603   -6.2463   24.4005 O   0  0  0  0  0  0  0  0  0  0  0  0
    8.0169   -4.5467   23.9933 C   0  0  0  0  0  0  0  0  0  0  0  0
    8.6700   -3.7479   22.8636 C   0  0  0  0  0  0  0  0  0  0  0  0
    9.7336   -2.8205   23.3296 N   0  0  0  0  0  0  0  0  0  0  0  0
    9.9233   -1.5535   22.5934 C   0  0  0  0  0  0  0  0  0  0  0  0
   11.3247   -1.0103   22.5858 C   0  0  0  0  0  0  0  0  0  0  0  0
   12.3106   -1.6169   21.7941 C   0  0  0  0  0  0  0  0  0  0  0  0
   13.6152   -1.1185   21.8176 C   0  0  0  0  0  0  0  0  0  0  0  0
   13.9277   -0.0544   22.6064 N   0  0  0  0  0  0  0  0  0  0  0  0
   12.9911    0.5476   23.3891 C   0  0  0  0  0  0  0  0  0  0  0  0
   11.6747    0.0805   23.3956 C   0  0  0  0  0  0  0  0  0  0  0  0
    9.8614   -2.6885   24.7905 C   0  0  0  0  0  0  0  0  0  0  0  0
   10.0972   -4.0754   25.4159 C   0  0  0  0  0  0  0  0  0  0  0  0
  1  2  3  0
  2  3  1  0
  3  4  1  0
  3  5  1  0
  5  6  1  0
  6  7  1  0
  7  8  1  0
  7 15  1  0
  8  9  1  0
  9 10  2  0
 10 11  1  0
 11 12  2  0
 12 13  1  0
 13 14  2  0
 14  9  1  0
 15 16  1  0
 16  3  1  0
M  END
>  <Hit>  (97) 
Mpro-x0387_0

>  <Receptor>  (97) 
Mpro-x0305_0

>  <SCORE>  (97) 
-14.694000000000001

>  <SCORE.norm>  (97) 
-0.918377

>  <SCORE.heavy>  (97) 
16

>  <OrigSmiles>  (97) 
C#CC1(O)CCN(Cc2ccncc2)CC1

>  <SuCOS_Score>  (97) 
0.47253663850029459

>  <Max_SuCOS_Score>  (97) 
0

>  <Cum_SuCOS_Score>  (97) 
0

>  <TransFSScore_50nM>  (97) 
0.042694999999999997

>  <TransFSScore_1uM>  (97) 
0.044098999999999999

>  <TransFSScore_10nM>  (97) 
0.0089680000000000003

>  <TransFSScore_200nM>  (97) 
0.053838999999999998

>  <TransFSScore>  (97) 
0.037400249999999996

>  <FeatureSteinScore>  (97) 
0.52158281522817596

>  <XCos_RefMols>  (97) 
x1392_0,x0874_0

>  <XCos_NumHits>  (97) 
2

>  <XCos_Score1>  (97) 
11.9006

>  <XCos_Score2>  (97) 
0.0672

>  <XCos_Score3>  (97) 
0.0056

$$$$
C#CC1(O)CCN(Cc2ccncc2)CC1
     RDKit          3D

 16 17  0  0  0  0  0  0  0  0999 V2000
    7.7273   -6.0541   27.1198 C   0  0  0  0  0  0  0  0  0  0  0  0
    8.3118   -5.6473   26.1466 C   0  0  0  0  0  0  0  0  0  0  0  0
    9.0266   -5.1496   24.9562 C   0  0  0  0  0  0  0  0  0  0  0  0
    9.6009   -6.2675   24.3275 O   0  0  0  0  0  0  0  0  0  0  0  0
    7.9966   -4.5112   24.0163 C   0  0  0  0  0  0  0  0  0  0  0  0
    8.6430   -3.6956   22.8949 C   0  0  0  0  0  0  0  0  0  0  0  0
    9.7440   -2.8130   23.3608 N   0  0  0  0  0  0  0  0  0  0  0  0
    9.9507   -1.5292   22.6591 C   0  0  0  0  0  0  0  0  0  0  0  0
   11.3628   -1.0140   22.6499 C   0  0  0  0  0  0  0  0  0  0  0  0
   11.7153    0.0874   23.4431 C   0  0  0  0  0  0  0  0  0  0  0  0
   13.0245    0.5727   23.4042 C   0  0  0  0  0  0  0  0  0  0  0  0
   13.9498   -0.0170   22.5990 N   0  0  0  0  0  0  0  0  0  0  0  0
   13.6313   -1.0825   21.8146 C   0  0  0  0  0  0  0  0  0  0  0  0
   12.3335   -1.5990   21.8232 C   0  0  0  0  0  0  0  0  0  0  0  0
    9.9129   -2.7306   24.8212 C   0  0  0  0  0  0  0  0  0  0  0  0
   10.1252   -4.1425   25.3972 C   0  0  0  0  0  0  0  0  0  0  0  0
  1  2  3  0
  2  3  1  0
  3  4  1  0
  3  5  1  0
  5  6  1  0
  6  7  1  0
  7  8  1  0
  7 15  1  0
  8  9  1  0
  9 10  2  0
 10 11  1  0
 11 12  2  0
 12 13  1  0
 13 14  2  0
 14  9  1  0
 15 16  1  0
 16  3  1  0
M  END
>  <Hit>  (98) 
Mpro-x0387_0

>  <Receptor>  (98) 
Mpro-x0305_0

>  <SCORE>  (98) 
-14.799099999999999

>  <SCORE.norm>  (98) 
-0.92494100000000001

>  <SCORE.heavy>  (98) 
16

>  <OrigSmiles>  (98) 
C#CC1(O)CCN(Cc2ccncc2)CC1

>  <SuCOS_Score>  (98) 
0.47777280766377928

>  <Max_SuCOS_Score>  (98) 
0

>  <Cum_SuCOS_Score>  (98) 
0

>  <TransFSScore_50nM>  (98) 
0.040702000000000002

>  <TransFSScore_1uM>  (98) 
0.044477000000000003

>  <TransFSScore_10nM>  (98) 
0.0087519999999999994

>  <TransFSScore_200nM>  (98) 
0.056009000000000003

>  <TransFSScore>  (98) 
0.037485000000000004

>  <FeatureSteinScore>  (98) 
0.51022618633976013

>  <XCos_RefMols>  (98) 
x1392_0,x0874_0

>  <XCos_NumHits>  (98) 
2

>  <XCos_Score1>  (98) 
11.8514

>  <XCos_Score2>  (98) 
0.1339

>  <XCos_Score3>  (98) 
0.0113

$$$$
C#CC1(O)CCN(Cc2ccncc2)CC1
     RDKit          3D

 16 17  0  0  0  0  0  0  0  0999 V2000
    7.7999   -6.0321   27.1059 C   0  0  0  0  0  0  0  0  0  0  0  0
    8.3623   -5.6325   26.1169 C   0  0  0  0  0  0  0  0  0  0  0  0
    9.0501   -5.1435   24.9071 C   0  0  0  0  0  0  0  0  0  0  0  0
    9.5900   -6.2686   24.2612 O   0  0  0  0  0  0  0  0  0  0  0  0
    8.0031   -4.4888   23.9977 C   0  0  0  0  0  0  0  0  0  0  0  0
    8.6291   -3.6811   22.8591 C   0  0  0  0  0  0  0  0  0  0  0  0
    9.7557   -2.8152   23.2944 N   0  0  0  0  0  0  0  0  0  0  0  0
    9.9609   -1.5335   22.5884 C   0  0  0  0  0  0  0  0  0  0  0  0
   11.3659   -0.9996   22.6068 C   0  0  0  0  0  0  0  0  0  0  0  0
   11.6930    0.0930   23.4228 C   0  0  0  0  0  0  0  0  0  0  0  0
   12.9959    0.5962   23.4096 C   0  0  0  0  0  0  0  0  0  0  0  0
   13.9397    0.0323   22.6074 N   0  0  0  0  0  0  0  0  0  0  0  0
   13.6461   -1.0241   21.8013 C   0  0  0  0  0  0  0  0  0  0  0  0
   12.3553   -1.5578   21.7838 C   0  0  0  0  0  0  0  0  0  0  0  0
    9.9672   -2.7374   24.7494 C   0  0  0  0  0  0  0  0  0  0  0  0
   10.1753   -4.1530   25.3177 C   0  0  0  0  0  0  0  0  0  0  0  0
  1  2  3  0
  2  3  1  0
  3  4  1  0
  3  5  1  0
  5  6  1  0
  6  7  1  0
  7  8  1  0
  7 15  1  0
  8  9  1  0
  9 10  2  0
 10 11  1  0
 11 12  2  0
 12 13  1  0
 13 14  2  0
 14  9  1  0
 15 16  1  0
 16  3  1  0
M  END
>  <Hit>  (99) 
Mpro-x0387_0

>  <Receptor>  (99) 
Mpro-x0305_0

>  <SCORE>  (99) 
-15.003299999999999

>  <SCORE.norm>  (99) 
-0.93770799999999999

>  <SCORE.heavy>  (99) 
16

>  <OrigSmiles>  (99) 
C#CC1(O)CCN(Cc2ccncc2)CC1

>  <SuCOS_Score>  (99) 
0.46572602090396731

>  <Max_SuCOS_Score>  (99) 
0

>  <Cum_SuCOS_Score>  (99) 
0

>  <TransFSScore_50nM>  (99) 
0.041519

>  <TransFSScore_1uM>  (99) 
0.043749999999999997

>  <TransFSScore_10nM>  (99) 
0.0090969999999999992

>  <TransFSScore_200nM>  (99) 
0.053900999999999998

>  <TransFSScore>  (99) 
0.037066749999999996

>  <FeatureSteinScore>  (99) 
0.48755817970402732

>  <XCos_RefMols>  (99) 
x1392_0,x0874_0

>  <XCos_NumHits>  (99) 
2

>  <XCos_Score1>  (99) 
11.8422

>  <XCos_Score2>  (99) 
0.0669

>  <XCos_Score3>  (99) 
0.0056

$$$$
C#CC1(O)CCN(Cc2ccncc2)CC1
     RDKit          3D

 16 17  0  0  0  0  0  0  0  0999 V2000
    7.8056   -5.9974   27.1783 C   0  0  0  0  0  0  0  0  0  0  0  0
    8.3571   -5.6198   26.1745 C   0  0  0  0  0  0  0  0  0  0  0  0
    9.0318   -5.1582   24.9468 C   0  0  0  0  0  0  0  0  0  0  0  0
    9.5438   -6.3003   24.3080 O   0  0  0  0  0  0  0  0  0  0  0  0
    7.9797   -4.5003   24.0456 C   0  0  0  0  0  0  0  0  0  0  0  0
    8.5988   -3.7180   22.8855 C   0  0  0  0  0  0  0  0  0  0  0  0
    9.7453   -2.8635   23.2899 N   0  0  0  0  0  0  0  0  0  0  0  0
    9.9580   -1.5951   22.5626 C   0  0  0  0  0  0  0  0  0  0  0  0
   11.3602   -1.0546   22.5957 C   0  0  0  0  0  0  0  0  0  0  0  0
   11.6701    0.0496   23.4028 C   0  0  0  0  0  0  0  0  0  0  0  0
   12.9710    0.5584   23.4031 C   0  0  0  0  0  0  0  0  0  0  0  0
   13.9293   -0.0113   22.6226 N   0  0  0  0  0  0  0  0  0  0  0  0
   13.6526   -1.0790   21.8254 C   0  0  0  0  0  0  0  0  0  0  0  0
   12.3645   -1.6187   21.7950 C   0  0  0  0  0  0  0  0  0  0  0  0
    9.9823   -2.7688   24.7401 C   0  0  0  0  0  0  0  0  0  0  0  0
   10.1785   -4.1794   25.3248 C   0  0  0  0  0  0  0  0  0  0  0  0
  1  2  3  0
  2  3  1  0
  3  4  1  0
  3  5  1  0
  5  6  1  0
  6  7  1  0
  7  8  1  0
  7 15  1  0
  8  9  1  0
  9 10  2  0
 10 11  1  0
 11 12  2  0
 12 13  1  0
 13 14  2  0
 14  9  1  0
 15 16  1  0
 16  3  1  0
M  END
>  <Hit>  (100) 
Mpro-x0387_0

>  <Receptor>  (100) 
Mpro-x0305_0

>  <SCORE>  (100) 
-15.1114

>  <SCORE.norm>  (100) 
-0.944465

>  <SCORE.heavy>  (100) 
16

>  <OrigSmiles>  (100) 
C#CC1(O)CCN(Cc2ccncc2)CC1

>  <SuCOS_Score>  (100) 
0.46832750634533138

>  <Max_SuCOS_Score>  (100) 
0

>  <Cum_SuCOS_Score>  (100) 
0

>  <TransFSScore_50nM>  (100) 
0.042528000000000003

>  <TransFSScore_1uM>  (100) 
0.043366000000000002

>  <TransFSScore_10nM>  (100) 
0.0082740000000000001

>  <TransFSScore_200nM>  (100) 
0.055202000000000001

>  <TransFSScore>  (100) 
0.037342500000000001

>  <FeatureSteinScore>  (100) 
0.49663538654789369

>  <XCos_RefMols>  (100) 
x1392_0,x0874_0

>  <XCos_NumHits>  (100) 
2

>  <XCos_Score1>  (100) 
11.8685

>  <XCos_Score2>  (100) 
0.0671

>  <XCos_Score3>  (100) 
0.0056

$$$$
C#CC1(O)CCN(Cc2ccncc2)CC1
     RDKit          3D

 16 17  0  0  0  0  0  0  0  0999 V2000
    7.8290   -6.0080   27.1869 C   0  0  0  0  0  0  0  0  0  0  0  0
    8.3770   -5.6234   26.1839 C   0  0  0  0  0  0  0  0  0  0  0  0
    9.0474   -5.1527   24.9572 C   0  0  0  0  0  0  0  0  0  0  0  0
    9.5600   -6.2897   24.3099 O   0  0  0  0  0  0  0  0  0  0  0  0
    7.9915   -4.4914   24.0630 C   0  0  0  0  0  0  0  0  0  0  0  0
    8.6057   -3.7006   22.9062 C   0  0  0  0  0  0  0  0  0  0  0  0
    9.7516   -2.8463   23.3128 N   0  0  0  0  0  0  0  0  0  0  0  0
    9.9597   -1.5729   22.5928 C   0  0  0  0  0  0  0  0  0  0  0  0
   11.3636   -1.0364   22.6144 C   0  0  0  0  0  0  0  0  0  0  0  0
   11.6821    0.0700   23.4150 C   0  0  0  0  0  0  0  0  0  0  0  0
   12.9844    0.5750   23.4046 C   0  0  0  0  0  0  0  0  0  0  0  0
   13.9358   -0.0005   22.6199 N   0  0  0  0  0  0  0  0  0  0  0  0
   13.6507   -1.0705   21.8289 C   0  0  0  0  0  0  0  0  0  0  0  0
   12.3609   -1.6065   21.8092 C   0  0  0  0  0  0  0  0  0  0  0  0
    9.9924   -2.7601   24.7628 C   0  0  0  0  0  0  0  0  0  0  0  0
   10.1931   -4.1740   25.3381 C   0  0  0  0  0  0  0  0  0  0  0  0
  1  2  3  0
  2  3  1  0
  3  4  1  0
  3  5  1  0
  5  6  1  0
  6  7  1  0
  7  8  1  0
  7 15  1  0
  8  9  1  0
  9 10  2  0
 10 11  1  0
 11 12  2  0
 12 13  1  0
 13 14  2  0
 14  9  1  0
 15 16  1  0
 16  3  1  0
M  END
>  <Hit>  (101) 
Mpro-x0387_0

>  <Receptor>  (101) 
Mpro-x0305_0

>  <SCORE>  (101) 
-15.1149

>  <SCORE.norm>  (101) 
-0.94467900000000005

>  <SCORE.heavy>  (101) 
16

>  <OrigSmiles>  (101) 
C#CC1(O)CCN(Cc2ccncc2)CC1

>  <SuCOS_Score>  (101) 
0.47284326643946373

>  <Max_SuCOS_Score>  (101) 
0

>  <Cum_SuCOS_Score>  (101) 
0

>  <TransFSScore_50nM>  (101) 
0.042921000000000001

>  <TransFSScore_1uM>  (101) 
0.043077999999999998

>  <TransFSScore_10nM>  (101) 
0.0082439999999999996

>  <TransFSScore_200nM>  (101) 
0.054577000000000001

>  <TransFSScore>  (101) 
0.037205000000000002

>  <FeatureSteinScore>  (101) 
0.50147594290662334

>  <XCos_RefMols>  (101) 
x1392_0,x0874_0

>  <XCos_NumHits>  (101) 
2

>  <XCos_Score1>  (101) 
11.9073

>  <XCos_Score2>  (101) 
0.0673

>  <XCos_Score3>  (101) 
0.0056

$$$$
C#CC1(O)CCN(Cc2ccncn2)CC1
     RDKit          3D

 16 17  0  0  0  0  0  0  0  0999 V2000
    7.5982   -6.4336   27.9635 C   0  0  0  0  0  0  0  0  0  0  0  0
    8.1252   -6.0603   26.9452 C   0  0  0  0  0  0  0  0  0  0  0  0
    8.7730   -5.6016   25.6954 C   0  0  0  0  0  0  0  0  0  0  0  0
    9.5537   -6.6530   25.1790 O   0  0  0  0  0  0  0  0  0  0  0  0
    7.6801   -5.2314   24.6823 C   0  0  0  0  0  0  0  0  0  0  0  0
    8.2391   -4.4831   23.4716 C   0  0  0  0  0  0  0  0  0  0  0  0
    9.1563   -3.3713   23.8375 N   0  0  0  0  0  0  0  0  0  0  0  0
    9.1581   -2.1580   22.9951 C   0  0  0  0  0  0  0  0  0  0  0  0
   10.4518   -1.3960   22.9603 C   0  0  0  0  0  0  0  0  0  0  0  0
   10.8679   -0.6704   24.0835 C   0  0  0  0  0  0  0  0  0  0  0  0
   12.0567    0.0525   24.0086 C   0  0  0  0  0  0  0  0  0  0  0  0
   12.7812    0.0485   22.8606 N   0  0  0  0  0  0  0  0  0  0  0  0
   12.3636   -0.6523   21.7745 C   0  0  0  0  0  0  0  0  0  0  0  0
   11.2062   -1.3650   21.8239 N   0  0  0  0  0  0  0  0  0  0  0  0
    9.2790   -3.1021   25.2798 C   0  0  0  0  0  0  0  0  0  0  0  0
    9.6962   -4.3933   26.0092 C   0  0  0  0  0  0  0  0  0  0  0  0
  1  2  3  0
  2  3  1  0
  3  4  1  0
  3  5  1  0
  5  6  1  0
  6  7  1  0
  7  8  1  0
  7 15  1  0
  8  9  1  0
  9 10  2  0
 10 11  1  0
 11 12  2  0
 12 13  1  0
 13 14  2  0
 14  9  1  0
 15 16  1  0
 16  3  1  0
M  END
>  <Hit>  (102) 
Mpro-x0387_0

>  <Receptor>  (102) 
Mpro-x0874_0

>  <SCORE>  (102) 
-11.543799999999999

>  <SCORE.norm>  (102) 
-0.72148999999999996

>  <SCORE.heavy>  (102) 
16

>  <OrigSmiles>  (102) 
C#CC1(O)CCN(Cc2ccncn2)CC1

>  <SuCOS_Score>  (102) 
0.45576556541391389

>  <Max_SuCOS_Score>  (102) 
0

>  <Cum_SuCOS_Score>  (102) 
0

>  <TransFSScore_50nM>  (102) 
0.046504999999999998

>  <TransFSScore_1uM>  (102) 
0.075314999999999993

>  <TransFSScore_10nM>  (102) 
0.126942

>  <TransFSScore_200nM>  (102) 
0.11327

>  <TransFSScore>  (102) 
0.090507999999999991

>  <FeatureSteinScore>  (102) 
0.4832351365641418

>  <XCos_RefMols>  (102) 
x0708_0,x1382_0

>  <XCos_NumHits>  (102) 
2

>  <XCos_Score1>  (102) 
11.9398

>  <XCos_Score2>  (102) 
0.2024

>  <XCos_Score3>  (102) 
0.0169

$$$$
C#CC1(O)CCN(Cc2ccncn2)CC1
     RDKit          3D

 16 17  0  0  0  0  0  0  0  0999 V2000
    7.4965   -6.3784   27.8372 C   0  0  0  0  0  0  0  0  0  0  0  0
    8.0571   -6.0036   26.8375 C   0  0  0  0  0  0  0  0  0  0  0  0
    8.7458   -5.5428   25.6106 C   0  0  0  0  0  0  0  0  0  0  0  0
    9.5521   -6.5895   25.1249 O   0  0  0  0  0  0  0  0  0  0  0  0
    7.6872   -5.1827   24.5582 C   0  0  0  0  0  0  0  0  0  0  0  0
    8.2836   -4.4329   23.3666 C   0  0  0  0  0  0  0  0  0  0  0  0
    9.1790   -3.3136   23.7624 N   0  0  0  0  0  0  0  0  0  0  0  0
    9.2020   -2.1020   22.9178 C   0  0  0  0  0  0  0  0  0  0  0  0
   10.4986   -1.3441   22.9082 C   0  0  0  0  0  0  0  0  0  0  0  0
   10.8980   -0.6247   24.0415 C   0  0  0  0  0  0  0  0  0  0  0  0
   12.0902    0.0946   23.9898 C   0  0  0  0  0  0  0  0  0  0  0  0
   12.8340    0.0931   22.8542 N   0  0  0  0  0  0  0  0  0  0  0  0
   12.4327   -0.6017   21.7582 C   0  0  0  0  0  0  0  0  0  0  0  0
   11.2723   -1.3107   21.7849 N   0  0  0  0  0  0  0  0  0  0  0  0
    9.2481   -3.0405   25.2075 C   0  0  0  0  0  0  0  0  0  0  0  0
    9.6484   -4.3270   25.9544 C   0  0  0  0  0  0  0  0  0  0  0  0
  1  2  3  0
  2  3  1  0
  3  4  1  0
  3  5  1  0
  5  6  1  0
  6  7  1  0
  7  8  1  0
  7 15  1  0
  8  9  1  0
  9 10  2  0
 10 11  1  0
 11 12  2  0
 12 13  1  0
 13 14  2  0
 14  9  1  0
 15 16  1  0
 16  3  1  0
M  END
>  <Hit>  (103) 
Mpro-x0387_0

>  <Receptor>  (103) 
Mpro-x0874_0

>  <SCORE>  (103) 
-11.5456

>  <SCORE.norm>  (103) 
-0.72160100000000005

>  <SCORE.heavy>  (103) 
16

>  <OrigSmiles>  (103) 
C#CC1(O)CCN(Cc2ccncn2)CC1

>  <SuCOS_Score>  (103) 
0.45363419653900805

>  <Max_SuCOS_Score>  (103) 
0

>  <Cum_SuCOS_Score>  (103) 
0

>  <TransFSScore_50nM>  (103) 
0.043399

>  <TransFSScore_1uM>  (103) 
0.073675000000000004

>  <TransFSScore_10nM>  (103) 
0.12931799999999999

>  <TransFSScore_200nM>  (103) 
0.118701

>  <TransFSScore>  (103) 
0.09127325

>  <FeatureSteinScore>  (103) 
0.48713345290125598

>  <XCos_RefMols>  (103) 
x0708_0,x1382_0

>  <XCos_NumHits>  (103) 
2

>  <XCos_Score1>  (103) 
11.8723

>  <XCos_Score2>  (103) 
0.2012

>  <XCos_Score3>  (103) 
0.0169

$$$$
C#CC1(O)CCN(Cc2ccncn2)CC1
     RDKit          3D

 16 17  0  0  0  0  0  0  0  0999 V2000
    7.5329   -6.3686   27.8643 C   0  0  0  0  0  0  0  0  0  0  0  0
    8.0838   -5.9977   26.8578 C   0  0  0  0  0  0  0  0  0  0  0  0
    8.7609   -5.5418   25.6226 C   0  0  0  0  0  0  0  0  0  0  0  0
    9.5529   -6.5945   25.1266 O   0  0  0  0  0  0  0  0  0  0  0  0
    7.6921   -5.1731   24.5835 C   0  0  0  0  0  0  0  0  0  0  0  0
    8.2796   -4.4275   23.3847 C   0  0  0  0  0  0  0  0  0  0  0  0
    9.1885   -3.3154   23.7697 N   0  0  0  0  0  0  0  0  0  0  0  0
    9.2105   -2.1037   22.9252 C   0  0  0  0  0  0  0  0  0  0  0  0
   10.5097   -1.3505   22.9076 C   0  0  0  0  0  0  0  0  0  0  0  0
   10.9188   -0.6327   24.0385 C   0  0  0  0  0  0  0  0  0  0  0  0
   12.1132    0.0823   23.9794 C   0  0  0  0  0  0  0  0  0  0  0  0
   12.8499    0.0784   22.8391 N   0  0  0  0  0  0  0  0  0  0  0  0
   12.4391   -0.6146   21.7455 C   0  0  0  0  0  0  0  0  0  0  0  0
   11.2764   -1.3196   21.7794 N   0  0  0  0  0  0  0  0  0  0  0  0
    9.2776   -3.0433   25.2140 C   0  0  0  0  0  0  0  0  0  0  0  0
    9.6771   -4.3332   25.9555 C   0  0  0  0  0  0  0  0  0  0  0  0
  1  2  3  0
  2  3  1  0
  3  4  1  0
  3  5  1  0
  5  6  1  0
  6  7  1  0
  7  8  1  0
  7 15  1  0
  8  9  1  0
  9 10  2  0
 10 11  1  0
 11 12  2  0
 12 13  1  0
 13 14  2  0
 14  9  1  0
 15 16  1  0
 16  3  1  0
M  END
>  <Hit>  (104) 
Mpro-x0387_0

>  <Receptor>  (104) 
Mpro-x0874_0

>  <SCORE>  (104) 
-11.574400000000001

>  <SCORE.norm>  (104) 
-0.72339900000000001

>  <SCORE.heavy>  (104) 
16

>  <OrigSmiles>  (104) 
C#CC1(O)CCN(Cc2ccncn2)CC1

>  <SuCOS_Score>  (104) 
0.45729539911379413

>  <Max_SuCOS_Score>  (104) 
0

>  <Cum_SuCOS_Score>  (104) 
0

>  <TransFSScore_50nM>  (104) 
0.042252999999999999

>  <TransFSScore_1uM>  (104) 
0.072890999999999997

>  <TransFSScore_10nM>  (104) 
0.129603

>  <TransFSScore_200nM>  (104) 
0.117964

>  <TransFSScore>  (104) 
0.090677750000000001

>  <FeatureSteinScore>  (104) 
0.48925126254743834

>  <XCos_RefMols>  (104) 
x0708_0,x1382_0

>  <XCos_NumHits>  (104) 
2

>  <XCos_Score1>  (104) 
11.9094

>  <XCos_Score2>  (104) 
0.2019

>  <XCos_Score3>  (104) 
0.0169

$$$$
C#CC1(O)CCN(Cc2ccncn2)CC1
     RDKit          3D

 16 17  0  0  0  0  0  0  0  0999 V2000
    7.5263   -6.3875   27.8531 C   0  0  0  0  0  0  0  0  0  0  0  0
    8.0795   -6.0101   26.8503 C   0  0  0  0  0  0  0  0  0  0  0  0
    8.7595   -5.5470   25.6194 C   0  0  0  0  0  0  0  0  0  0  0  0
    9.5629   -6.5925   25.1265 O   0  0  0  0  0  0  0  0  0  0  0  0
    7.6935   -5.1858   24.5749 C   0  0  0  0  0  0  0  0  0  0  0  0
    8.2814   -4.4338   23.3804 C   0  0  0  0  0  0  0  0  0  0  0  0
    9.1789   -3.3146   23.7718 N   0  0  0  0  0  0  0  0  0  0  0  0
    9.1955   -2.1017   22.9290 C   0  0  0  0  0  0  0  0  0  0  0  0
   10.4885   -1.3378   22.9194 C   0  0  0  0  0  0  0  0  0  0  0  0
   10.8907   -0.6269   24.0572 C   0  0  0  0  0  0  0  0  0  0  0  0
   12.0792    0.0983   24.0057 C   0  0  0  0  0  0  0  0  0  0  0  0
   12.8170    0.1108   22.8662 N   0  0  0  0  0  0  0  0  0  0  0  0
   12.4129   -0.5757   21.7660 C   0  0  0  0  0  0  0  0  0  0  0  0
   11.2560   -1.2904   21.7924 N   0  0  0  0  0  0  0  0  0  0  0  0
    9.2578   -3.0438   25.2168 C   0  0  0  0  0  0  0  0  0  0  0  0
    9.6638   -4.3313   25.9589 C   0  0  0  0  0  0  0  0  0  0  0  0
  1  2  3  0
  2  3  1  0
  3  4  1  0
  3  5  1  0
  5  6  1  0
  6  7  1  0
  7  8  1  0
  7 15  1  0
  8  9  1  0
  9 10  2  0
 10 11  1  0
 11 12  2  0
 12 13  1  0
 13 14  2  0
 14  9  1  0
 15 16  1  0
 16  3  1  0
M  END
>  <Hit>  (105) 
Mpro-x0387_0

>  <Receptor>  (105) 
Mpro-x0874_0

>  <SCORE>  (105) 
-11.5837

>  <SCORE.norm>  (105) 
-0.72398200000000001

>  <SCORE.heavy>  (105) 
16

>  <OrigSmiles>  (105) 
C#CC1(O)CCN(Cc2ccncn2)CC1

>  <SuCOS_Score>  (105) 
0.45319988130565736

>  <Max_SuCOS_Score>  (105) 
0

>  <Cum_SuCOS_Score>  (105) 
0

>  <TransFSScore_50nM>  (105) 
0.042781

>  <TransFSScore_1uM>  (105) 
0.074135999999999994

>  <TransFSScore_10nM>  (105) 
0.132075

>  <TransFSScore_200nM>  (105) 
0.116966

>  <TransFSScore>  (105) 
0.091489500000000001

>  <FeatureSteinScore>  (105) 
0.48939724137527757

>  <XCos_RefMols>  (105) 
x0708_0,x1382_0

>  <XCos_NumHits>  (105) 
2

>  <XCos_Score1>  (105) 
11.8760

>  <XCos_Score2>  (105) 
0.2013

>  <XCos_Score3>  (105) 
0.0169

$$$$
C#CC1(O)CCN(Cc2ccncn2)CC1
     RDKit          3D

 16 17  0  0  0  0  0  0  0  0999 V2000
    7.7669   -6.2961   27.5601 C   0  0  0  0  0  0  0  0  0  0  0  0
    8.2388   -5.8971   26.5246 C   0  0  0  0  0  0  0  0  0  0  0  0
    8.8186   -5.4066   25.2537 C   0  0  0  0  0  0  0  0  0  0  0  0
    9.4629   -6.4785   24.6076 O   0  0  0  0  0  0  0  0  0  0  0  0
    7.6817   -4.8829   24.3643 C   0  0  0  0  0  0  0  0  0  0  0  0
    8.2010   -4.1001   23.1578 C   0  0  0  0  0  0  0  0  0  0  0  0
    9.2355   -3.0917   23.5100 N   0  0  0  0  0  0  0  0  0  0  0  0
    9.2708   -1.8276   22.7468 C   0  0  0  0  0  0  0  0  0  0  0  0
   10.5881   -1.1062   22.7497 C   0  0  0  0  0  0  0  0  0  0  0  0
   10.9348   -0.2850   23.8299 C   0  0  0  0  0  0  0  0  0  0  0  0
   12.1495    0.3962   23.7877 C   0  0  0  0  0  0  0  0  0  0  0  0
   12.9654    0.2611   22.7112 N   0  0  0  0  0  0  0  0  0  0  0  0
   12.6150   -0.5317   21.6654 C   0  0  0  0  0  0  0  0  0  0  0  0
   11.4340   -1.2061   21.6839 N   0  0  0  0  0  0  0  0  0  0  0  0
    9.4980   -2.9323   24.9499 C   0  0  0  0  0  0  0  0  0  0  0  0
    9.8630   -4.2991   25.5595 C   0  0  0  0  0  0  0  0  0  0  0  0
  1  2  3  0
  2  3  1  0
  3  4  1  0
  3  5  1  0
  5  6  1  0
  6  7  1  0
  7  8  1  0
  7 15  1  0
  8  9  1  0
  9 10  2  0
 10 11  1  0
 11 12  2  0
 12 13  1  0
 13 14  2  0
 14  9  1  0
 15 16  1  0
 16  3  1  0
M  END
>  <Hit>  (106) 
Mpro-x0387_0

>  <Receptor>  (106) 
Mpro-x0874_0

>  <SCORE>  (106) 
-11.779299999999999

>  <SCORE.norm>  (106) 
-0.736205

>  <SCORE.heavy>  (106) 
16

>  <OrigSmiles>  (106) 
C#CC1(O)CCN(Cc2ccncn2)CC1

>  <SuCOS_Score>  (106) 
0.43036058870852134

>  <Max_SuCOS_Score>  (106) 
0

>  <Cum_SuCOS_Score>  (106) 
0

>  <TransFSScore_50nM>  (106) 
0.035151000000000002

>  <TransFSScore_1uM>  (106) 
0.059399

>  <TransFSScore_10nM>  (106) 
0.14465700000000001

>  <TransFSScore_200nM>  (106) 
0.117067

>  <TransFSScore>  (106) 
0.089068499999999995

>  <FeatureSteinScore>  (106) 
0.44812454917366545

>  <XCos_RefMols>  (106) 
x1392_0,x0874_0

>  <XCos_NumHits>  (106) 
2

>  <XCos_Score1>  (106) 
11.7681

>  <XCos_Score2>  (106) 
0.1330

>  <XCos_Score3>  (106) 
0.0113

$$$$
C#CC1(O)CCN(Cc2ccncn2)CC1
     RDKit          3D

 16 17  0  0  0  0  0  0  0  0999 V2000
    7.8959   -6.1074   27.2013 C   0  0  0  0  0  0  0  0  0  0  0  0
    8.3952   -5.6983   26.1828 C   0  0  0  0  0  0  0  0  0  0  0  0
    9.0087   -5.1967   24.9322 C   0  0  0  0  0  0  0  0  0  0  0  0
    9.4559   -6.2964   24.1756 O   0  0  0  0  0  0  0  0  0  0  0  0
    7.9443   -4.4278   24.1362 C   0  0  0  0  0  0  0  0  0  0  0  0
    8.5464   -3.6347   22.9758 C   0  0  0  0  0  0  0  0  0  0  0  0
    9.7375   -2.8338   23.3642 N   0  0  0  0  0  0  0  0  0  0  0  0
    9.9511   -1.5297   22.7043 C   0  0  0  0  0  0  0  0  0  0  0  0
   11.3639   -1.0205   22.7189 C   0  0  0  0  0  0  0  0  0  0  0  0
   11.7927   -0.1735   23.7486 C   0  0  0  0  0  0  0  0  0  0  0  0
   13.0997    0.3081   23.7162 C   0  0  0  0  0  0  0  0  0  0  0  0
   13.9256   -0.0406   22.6968 N   0  0  0  0  0  0  0  0  0  0  0  0
   13.4963   -0.8562   21.6989 C   0  0  0  0  0  0  0  0  0  0  0  0
   12.2245   -1.3382   21.7090 N   0  0  0  0  0  0  0  0  0  0  0  0
   10.0633   -2.8416   24.8000 C   0  0  0  0  0  0  0  0  0  0  0  0
   10.2241   -4.2959   25.2820 C   0  0  0  0  0  0  0  0  0  0  0  0
  1  2  3  0
  2  3  1  0
  3  4  1  0
  3  5  1  0
  5  6  1  0
  6  7  1  0
  7  8  1  0
  7 15  1  0
  8  9  1  0
  9 10  2  0
 10 11  1  0
 11 12  2  0
 12 13  1  0
 13 14  2  0
 14  9  1  0
 15 16  1  0
 16  3  1  0
M  END
>  <Hit>  (107) 
Mpro-x0387_0

>  <Receptor>  (107) 
Mpro-x0305_0

>  <SCORE>  (107) 
-12.330299999999999

>  <SCORE.norm>  (107) 
-0.77064100000000002

>  <SCORE.heavy>  (107) 
16

>  <OrigSmiles>  (107) 
C#CC1(O)CCN(Cc2ccncn2)CC1

>  <SuCOS_Score>  (107) 
0.46357959126489467

>  <Max_SuCOS_Score>  (107) 
0

>  <Cum_SuCOS_Score>  (107) 
0

>  <TransFSScore_50nM>  (107) 
0.049360000000000001

>  <TransFSScore_1uM>  (107) 
0.041015000000000003

>  <TransFSScore_10nM>  (107) 
0.058834999999999998

>  <TransFSScore_200nM>  (107) 
0.055967999999999997

>  <TransFSScore>  (107) 
0.0512945

>  <FeatureSteinScore>  (107) 
0.37649251864475747

>  <XCos_RefMols>  (107) 
x1392_0,x0874_0

>  <XCos_NumHits>  (107) 
2

>  <XCos_Score1>  (107) 
11.2995

>  <XCos_Score2>  (107) 
0.0638

>  <XCos_Score3>  (107) 
0.0056

$$$$
C#CC1(O)CCN(Cc2ccncn2)CC1
     RDKit          3D

 16 17  0  0  0  0  0  0  0  0999 V2000
    7.3840   -6.3286   27.9625 C   0  0  0  0  0  0  0  0  0  0  0  0
    7.9559   -5.9962   26.9543 C   0  0  0  0  0  0  0  0  0  0  0  0
    8.6574   -5.5883   25.7159 C   0  0  0  0  0  0  0  0  0  0  0  0
    9.4696   -6.6541   25.2848 O   0  0  0  0  0  0  0  0  0  0  0  0
    7.6098   -5.2756   24.6376 C   0  0  0  0  0  0  0  0  0  0  0  0
    8.2185   -4.5776   23.4209 C   0  0  0  0  0  0  0  0  0  0  0  0
    9.1087   -3.4411   23.7772 N   0  0  0  0  0  0  0  0  0  0  0  0
    9.1399   -2.2673   22.8810 C   0  0  0  0  0  0  0  0  0  0  0  0
   10.3841   -1.4294   22.9547 C   0  0  0  0  0  0  0  0  0  0  0  0
   10.6749   -0.7079   24.1194 C   0  0  0  0  0  0  0  0  0  0  0  0
   11.8198    0.0857   24.1447 C   0  0  0  0  0  0  0  0  0  0  0  0
   12.6226    0.1525   23.0521 N   0  0  0  0  0  0  0  0  0  0  0  0
   12.3262   -0.5452   21.9249 C   0  0  0  0  0  0  0  0  0  0  0  0
   11.2137   -1.3261   21.8765 N   0  0  0  0  0  0  0  0  0  0  0  0
    9.1621   -3.1053   25.2097 C   0  0  0  0  0  0  0  0  0  0  0  0
    9.5553   -4.3577   26.0161 C   0  0  0  0  0  0  0  0  0  0  0  0
  1  2  3  0
  2  3  1  0
  3  4  1  0
  3  5  1  0
  5  6  1  0
  6  7  1  0
  7  8  1  0
  7 15  1  0
  8  9  1  0
  9 10  2  0
 10 11  1  0
 11 12  2  0
 12 13  1  0
 13 14  2  0
 14  9  1  0
 15 16  1  0
 16  3  1  0
M  END
>  <Hit>  (108) 
Mpro-x0387_0

>  <Receptor>  (108) 
Mpro-x1249_0

>  <SCORE>  (108) 
-12.3337

>  <SCORE.norm>  (108) 
-0.77085400000000004

>  <SCORE.heavy>  (108) 
16

>  <OrigSmiles>  (108) 
C#CC1(O)CCN(Cc2ccncn2)CC1

>  <SuCOS_Score>  (108) 
0.43163621995705104

>  <Max_SuCOS_Score>  (108) 
0

>  <Cum_SuCOS_Score>  (108) 
0

>  <TransFSScore_50nM>  (108) 
0.048894

>  <TransFSScore_1uM>  (108) 
0.065282999999999994

>  <TransFSScore_10nM>  (108) 
0.12565000000000001

>  <TransFSScore_200nM>  (108) 
0.120861

>  <TransFSScore>  (108) 
0.090172000000000002

>  <FeatureSteinScore>  (108) 
0.47409757744133624

>  <XCos_RefMols>  (108) 
x1392_0,x1382_0

>  <XCos_NumHits>  (108) 
2

>  <XCos_Score1>  (108) 
11.9243

>  <XCos_Score2>  (108) 
0.2021

>  <XCos_Score3>  (108) 
0.0169

$$$$
C#CC1(O)CCN(Cc2ccncn2)CC1
     RDKit          3D

 16 17  0  0  0  0  0  0  0  0999 V2000
    7.4981   -6.4149   27.9245 C   0  0  0  0  0  0  0  0  0  0  0  0
    8.0589   -6.0583   26.9184 C   0  0  0  0  0  0  0  0  0  0  0  0
    8.7483   -5.6204   25.6834 C   0  0  0  0  0  0  0  0  0  0  0  0
    9.5721   -6.6680   25.2302 O   0  0  0  0  0  0  0  0  0  0  0  0
    7.6909   -5.3035   24.6160 C   0  0  0  0  0  0  0  0  0  0  0  0
    8.2838   -4.5772   23.4081 C   0  0  0  0  0  0  0  0  0  0  0  0
    9.1609   -3.4351   23.7789 N   0  0  0  0  0  0  0  0  0  0  0  0
    9.1719   -2.2462   22.9025 C   0  0  0  0  0  0  0  0  0  0  0  0
   10.4245   -1.4188   22.9496 C   0  0  0  0  0  0  0  0  0  0  0  0
   10.7422   -0.6938   24.1049 C   0  0  0  0  0  0  0  0  0  0  0  0
   11.8942    0.0899   24.1056 C   0  0  0  0  0  0  0  0  0  0  0  0
   12.6779    0.1439   22.9985 N   0  0  0  0  0  0  0  0  0  0  0  0
   12.3555   -0.5570   21.8805 C   0  0  0  0  0  0  0  0  0  0  0  0
   11.2356   -1.3285   21.8562 N   0  0  0  0  0  0  0  0  0  0  0  0
    9.2176   -3.1228   25.2166 C   0  0  0  0  0  0  0  0  0  0  0  0
    9.6316   -4.3832   25.9997 C   0  0  0  0  0  0  0  0  0  0  0  0
  1  2  3  0
  2  3  1  0
  3  4  1  0
  3  5  1  0
  5  6  1  0
  6  7  1  0
  7  8  1  0
  7 15  1  0
  8  9  1  0
  9 10  2  0
 10 11  1  0
 11 12  2  0
 12 13  1  0
 13 14  2  0
 14  9  1  0
 15 16  1  0
 16  3  1  0
M  END
>  <Hit>  (109) 
Mpro-x0387_0

>  <Receptor>  (109) 
Mpro-x1249_0

>  <SCORE>  (109) 
-12.3757

>  <SCORE.norm>  (109) 
-0.773482

>  <SCORE.heavy>  (109) 
16

>  <OrigSmiles>  (109) 
C#CC1(O)CCN(Cc2ccncn2)CC1

>  <SuCOS_Score>  (109) 
0.43816884331126971

>  <Max_SuCOS_Score>  (109) 
0

>  <Cum_SuCOS_Score>  (109) 
0

>  <TransFSScore_50nM>  (109) 
0.045199000000000003

>  <TransFSScore_1uM>  (109) 
0.065561999999999995

>  <TransFSScore_10nM>  (109) 
0.12725900000000001

>  <TransFSScore_200nM>  (109) 
0.124002

>  <TransFSScore>  (109) 
0.090505500000000003

>  <FeatureSteinScore>  (109) 
0.46386912630315741

>  <XCos_RefMols>  (109) 
x1392_0,x1382_0

>  <XCos_NumHits>  (109) 
2

>  <XCos_Score1>  (109) 
11.9239

>  <XCos_Score2>  (109) 
0.2021

>  <XCos_Score3>  (109) 
0.0169

$$$$
C#CC1(O)CCN(Cc2ccncn2)CC1
     RDKit          3D

 16 17  0  0  0  0  0  0  0  0999 V2000
    7.4960   -6.3488   27.9922 C   0  0  0  0  0  0  0  0  0  0  0  0
    8.0461   -6.0144   26.9726 C   0  0  0  0  0  0  0  0  0  0  0  0
    8.7222   -5.6044   25.7209 C   0  0  0  0  0  0  0  0  0  0  0  0
    9.5106   -6.6762   25.2613 O   0  0  0  0  0  0  0  0  0  0  0  0
    7.6527   -5.2699   24.6711 C   0  0  0  0  0  0  0  0  0  0  0  0
    8.2401   -4.5688   23.4458 C   0  0  0  0  0  0  0  0  0  0  0  0
    9.1525   -3.4461   23.7896 N   0  0  0  0  0  0  0  0  0  0  0  0
    9.1763   -2.2652   22.9027 C   0  0  0  0  0  0  0  0  0  0  0  0
   10.4279   -1.4372   22.9607 C   0  0  0  0  0  0  0  0  0  0  0  0
   10.7465   -0.7295   24.1265 C   0  0  0  0  0  0  0  0  0  0  0  0
   11.8975    0.0554   24.1376 C   0  0  0  0  0  0  0  0  0  0  0  0
   12.6796    0.1273   23.0303 N   0  0  0  0  0  0  0  0  0  0  0  0
   12.3564   -0.5568   21.9023 C   0  0  0  0  0  0  0  0  0  0  0  0
   11.2374   -1.3292   21.8677 N   0  0  0  0  0  0  0  0  0  0  0  0
    9.2448   -3.1234   25.2232 C   0  0  0  0  0  0  0  0  0  0  0  0
    9.6422   -4.3873   26.0093 C   0  0  0  0  0  0  0  0  0  0  0  0
  1  2  3  0
  2  3  1  0
  3  4  1  0
  3  5  1  0
  5  6  1  0
  6  7  1  0
  7  8  1  0
  7 15  1  0
  8  9  1  0
  9 10  2  0
 10 11  1  0
 11 12  2  0
 12 13  1  0
 13 14  2  0
 14  9  1  0
 15 16  1  0
 16  3  1  0
M  END
>  <Hit>  (110) 
Mpro-x0387_0

>  <Receptor>  (110) 
Mpro-x1249_0

>  <SCORE>  (110) 
-12.5321

>  <SCORE.norm>  (110) 
-0.78325800000000001

>  <SCORE.heavy>  (110) 
16

>  <OrigSmiles>  (110) 
C#CC1(O)CCN(Cc2ccncn2)CC1

>  <SuCOS_Score>  (110) 
0.44296196041371833

>  <Max_SuCOS_Score>  (110) 
0

>  <Cum_SuCOS_Score>  (110) 
0

>  <TransFSScore_50nM>  (110) 
0.046622999999999998

>  <TransFSScore_1uM>  (110) 
0.063807000000000003

>  <TransFSScore_10nM>  (110) 
0.125309

>  <TransFSScore_200nM>  (110) 
0.120393

>  <TransFSScore>  (110) 
0.089033000000000001

>  <FeatureSteinScore>  (110) 
0.47229521562935717

>  <XCos_RefMols>  (110) 
x1392_0,x1382_0

>  <XCos_NumHits>  (110) 
2

>  <XCos_Score1>  (110) 
11.9846

>  <XCos_Score2>  (110) 
0.2031

>  <XCos_Score3>  (110) 
0.0169

$$$$
C#CC1(O)CCN(Cc2ccncn2)CC1
     RDKit          3D

 16 17  0  0  0  0  0  0  0  0999 V2000
    7.5828   -6.3542   28.0196 C   0  0  0  0  0  0  0  0  0  0  0  0
    8.1181   -6.0235   26.9910 C   0  0  0  0  0  0  0  0  0  0  0  0
    8.7745   -5.6174   25.7275 C   0  0  0  0  0  0  0  0  0  0  0  0
    9.5677   -6.6853   25.2670 O   0  0  0  0  0  0  0  0  0  0  0  0
    7.6887   -5.3023   24.6885 C   0  0  0  0  0  0  0  0  0  0  0  0
    8.2539   -4.6058   23.4501 C   0  0  0  0  0  0  0  0  0  0  0  0
    9.1594   -3.4714   23.7732 N   0  0  0  0  0  0  0  0  0  0  0  0
    9.1605   -2.2978   22.8763 C   0  0  0  0  0  0  0  0  0  0  0  0
   10.3896   -1.4370   22.9380 C   0  0  0  0  0  0  0  0  0  0  0  0
   10.6967   -0.7373   24.1117 C   0  0  0  0  0  0  0  0  0  0  0  0
   11.8262    0.0784   24.1265 C   0  0  0  0  0  0  0  0  0  0  0  0
   12.5986    0.1869   23.0154 N   0  0  0  0  0  0  0  0  0  0  0  0
   12.2864   -0.4900   21.8799 C   0  0  0  0  0  0  0  0  0  0  0  0
   11.1885   -1.2919   21.8415 N   0  0  0  0  0  0  0  0  0  0  0  0
    9.2663   -3.1357   25.2028 C   0  0  0  0  0  0  0  0  0  0  0  0
    9.6859   -4.3890   25.9943 C   0  0  0  0  0  0  0  0  0  0  0  0
  1  2  3  0
  2  3  1  0
  3  4  1  0
  3  5  1  0
  5  6  1  0
  6  7  1  0
  7  8  1  0
  7 15  1  0
  8  9  1  0
  9 10  2  0
 10 11  1  0
 11 12  2  0
 12 13  1  0
 13 14  2  0
 14  9  1  0
 15 16  1  0
 16  3  1  0
M  END
>  <Hit>  (111) 
Mpro-x0387_0

>  <Receptor>  (111) 
Mpro-x1249_0

>  <SCORE>  (111) 
-12.5451

>  <SCORE.norm>  (111) 
-0.78406799999999999

>  <SCORE.heavy>  (111) 
16

>  <OrigSmiles>  (111) 
C#CC1(O)CCN(Cc2ccncn2)CC1

>  <SuCOS_Score>  (111) 
0.43214412612175346

>  <Max_SuCOS_Score>  (111) 
0

>  <Cum_SuCOS_Score>  (111) 
0

>  <TransFSScore_50nM>  (111) 
0.045932000000000001

>  <TransFSScore_1uM>  (111) 
0.063891000000000003

>  <TransFSScore_10nM>  (111) 
0.13103400000000001

>  <TransFSScore_200nM>  (111) 
0.13034799999999999

>  <TransFSScore>  (111) 
0.092801250000000002

>  <FeatureSteinScore>  (111) 
0.46288632173878885

>  <XCos_RefMols>  (111) 
x1392_0,x1382_0

>  <XCos_NumHits>  (111) 
2

>  <XCos_Score1>  (111) 
12.0482

>  <XCos_Score2>  (111) 
0.2042

>  <XCos_Score3>  (111) 
0.0169

$$$$
C#CC1(O)CCN(Cc2ccno2)CC1
     RDKit          3D

 15 16  0  0  0  0  0  0  0  0999 V2000
    8.5447   -2.1917   27.0368 C   0  0  0  0  0  0  0  0  0  0  0  0
    8.6412   -3.3653   26.7722 C   0  0  0  0  0  0  0  0  0  0  0  0
    8.7487   -4.8148   26.4264 C   0  0  0  0  0  0  0  0  0  0  0  0
    8.6898   -5.3792   27.6700 O   0  0  0  0  0  0  0  0  0  0  0  0
   10.0502   -5.1173   25.6898 C   0  0  0  0  0  0  0  0  0  0  0  0
   10.1636   -4.1263   24.5356 C   0  0  0  0  0  0  0  0  0  0  0  0
    8.8595   -3.7910   23.9056 N   0  0  0  0  0  0  0  0  0  0  0  0
    8.9213   -3.2245   22.5558 C   0  0  0  0  0  0  0  0  0  0  0  0
    9.9712   -2.1787   22.3622 C   0  0  0  0  0  0  0  0  0  0  0  0
    9.7574   -0.8588   22.0288 C   0  0  0  0  0  0  0  0  0  0  0  0
   11.0266   -0.3226   21.9886 C   0  0  0  0  0  0  0  0  0  0  0  0
   11.9269   -1.2812   22.2828 N   0  0  0  0  0  0  0  0  0  0  0  0
   11.2608   -2.3777   22.5009 O   0  0  0  0  0  0  0  0  0  0  0  0
    7.8419   -4.8595   24.0301 C   0  0  0  0  0  0  0  0  0  0  0  0
    7.5672   -5.2127   25.5200 C   0  0  0  0  0  0  0  0  0  0  0  0
  1  2  3  0
  2  3  1  0
  3  4  1  0
  3  5  1  0
  5  6  1  0
  6  7  1  0
  7  8  1  0
  7 14  1  0
  8  9  1  0
  9 10  2  0
 10 11  1  0
 11 12  2  0
 12 13  1  0
 13  9  1  0
 14 15  1  0
 15  3  1  0
M  END
>  <Hit>  (112) 
Mpro-x0387_0

>  <Receptor>  (112) 
Mpro-x1249_0

>  <SCORE>  (112) 
-10.1524

>  <SCORE.norm>  (112) 
-0.67682600000000004

>  <SCORE.heavy>  (112) 
15

>  <OrigSmiles>  (112) 
C#CC1(O)CCN(Cc2ccno2)CC1

>  <SuCOS_Score>  (112) 
0.40960337172498329

>  <Max_SuCOS_Score>  (112) 
0

>  <Cum_SuCOS_Score>  (112) 
0

>  <TransFSScore_50nM>  (112) 
0.004084

>  <TransFSScore_1uM>  (112) 
0.028302000000000001

>  <TransFSScore_10nM>  (112) 
0.00363

>  <TransFSScore_200nM>  (112) 
0.071559999999999999

>  <TransFSScore>  (112) 
0.026894000000000001

>  <FeatureSteinScore>  (112) 
0.27704543644880181

>  <XCos_RefMols>  (112) 
x1392_0

>  <XCos_NumHits>  (112) 
1

>  <XCos_Score1>  (112) 
10.0019

>  <XCos_Score2>  (112) 
0.0000

>  <XCos_Score3>  (112) 
0.0000

$$$$
C#CC1(O)CCN(Cc2ccno2)CC1
     RDKit          3D

 15 16  0  0  0  0  0  0  0  0999 V2000
    8.7561   -2.8339   27.5683 C   0  0  0  0  0  0  0  0  0  0  0  0
    8.8016   -3.9296   27.0641 C   0  0  0  0  0  0  0  0  0  0  0  0
    8.8403   -5.2918   26.4518 C   0  0  0  0  0  0  0  0  0  0  0  0
    8.5966   -6.0715   27.5478 O   0  0  0  0  0  0  0  0  0  0  0  0
   10.1920   -5.5731   25.8023 C   0  0  0  0  0  0  0  0  0  0  0  0
   10.5110   -4.3983   24.8829 C   0  0  0  0  0  0  0  0  0  0  0  0
    9.3167   -3.8280   24.2057 N   0  0  0  0  0  0  0  0  0  0  0  0
    9.5757   -3.0266   23.0067 C   0  0  0  0  0  0  0  0  0  0  0  0
   10.7190   -2.0715   23.1259 C   0  0  0  0  0  0  0  0  0  0  0  0
   11.6752   -1.8188   22.1665 C   0  0  0  0  0  0  0  0  0  0  0  0
   12.4806   -0.8653   22.7515 C   0  0  0  0  0  0  0  0  0  0  0  0
   12.0153   -0.5817   23.9840 N   0  0  0  0  0  0  0  0  0  0  0  0
   10.9611   -1.3207   24.1744 O   0  0  0  0  0  0  0  0  0  0  0  0
    8.2150   -4.7991   24.0160 C   0  0  0  0  0  0  0  0  0  0  0  0
    7.7450   -5.3981   25.3727 C   0  0  0  0  0  0  0  0  0  0  0  0
  1  2  3  0
  2  3  1  0
  3  4  1  0
  3  5  1  0
  5  6  1  0
  6  7  1  0
  7  8  1  0
  7 14  1  0
  8  9  1  0
  9 10  2  0
 10 11  1  0
 11 12  2  0
 12 13  1  0
 13  9  1  0
 14 15  1  0
 15  3  1  0
M  END
>  <Hit>  (113) 
Mpro-x0387_0

>  <Receptor>  (113) 
Mpro-x0305_0

>  <SCORE>  (113) 
-10.300800000000001

>  <SCORE.norm>  (113) 
-0.68672

>  <SCORE.heavy>  (113) 
15

>  <OrigSmiles>  (113) 
C#CC1(O)CCN(Cc2ccno2)CC1

>  <SuCOS_Score>  (113) 
0.46270134802849194

>  <Max_SuCOS_Score>  (113) 
0

>  <Cum_SuCOS_Score>  (113) 
0

>  <TransFSScore_50nM>  (113) 
0.0085939999999999992

>  <TransFSScore_1uM>  (113) 
0.043976000000000001

>  <TransFSScore_10nM>  (113) 
0.016899000000000001

>  <TransFSScore_200nM>  (113) 
0.12670500000000001

>  <TransFSScore>  (113) 
0.049043500000000004

>  <FeatureSteinScore>  (113) 
0.27503488443020424

>  <XCos_RefMols>  (113) 
x1392_0,x0305_0

>  <XCos_NumHits>  (113) 
2

>  <XCos_Score1>  (113) 
10.1769

>  <XCos_Score2>  (113) 
0.0575

>  <XCos_Score3>  (113) 
0.0056

$$$$
C#CC1(O)CCN(Cc2ccno2)CC1
     RDKit          3D

 15 16  0  0  0  0  0  0  0  0999 V2000
   10.6183   -5.4016   25.3867 C   0  0  0  0  0  0  0  0  0  0  0  0
    9.6632   -4.6733   25.5048 C   0  0  0  0  0  0  0  0  0  0  0  0
    8.4700   -3.7839   25.6360 C   0  0  0  0  0  0  0  0  0  0  0  0
    7.9033   -4.2833   26.7754 O   0  0  0  0  0  0  0  0  0  0  0  0
    7.5596   -3.8884   24.4161 C   0  0  0  0  0  0  0  0  0  0  0  0
    8.4292   -3.6915   23.1783 C   0  0  0  0  0  0  0  0  0  0  0  0
    9.5264   -2.7068   23.3692 N   0  0  0  0  0  0  0  0  0  0  0  0
   10.1054   -2.1406   22.1482 C   0  0  0  0  0  0  0  0  0  0  0  0
   11.3924   -1.4073   22.3462 C   0  0  0  0  0  0  0  0  0  0  0  0
   12.5741   -1.6359   21.6752 C   0  0  0  0  0  0  0  0  0  0  0  0
   13.4365   -0.7001   22.2049 C   0  0  0  0  0  0  0  0  0  0  0  0
   12.7885    0.0309   23.1331 N   0  0  0  0  0  0  0  0  0  0  0  0
   11.5686   -0.4189   23.1911 O   0  0  0  0  0  0  0  0  0  0  0  0
    9.2359   -1.6777   24.3936 C   0  0  0  0  0  0  0  0  0  0  0  0
    8.9359   -2.3216   25.7777 C   0  0  0  0  0  0  0  0  0  0  0  0
  1  2  3  0
  2  3  1  0
  3  4  1  0
  3  5  1  0
  5  6  1  0
  6  7  1  0
  7  8  1  0
  7 14  1  0
  8  9  1  0
  9 10  2  0
 10 11  1  0
 11 12  2  0
 12 13  1  0
 13  9  1  0
 14 15  1  0
 15  3  1  0
M  END
>  <Hit>  (114) 
Mpro-x0387_0

>  <Receptor>  (114) 
Mpro-x0874_0

>  <SCORE>  (114) 
-10.397600000000001

>  <SCORE.norm>  (114) 
-0.69317499999999999

>  <SCORE.heavy>  (114) 
15

>  <OrigSmiles>  (114) 
C#CC1(O)CCN(Cc2ccno2)CC1

>  <SuCOS_Score>  (114) 
0.47115205726475157

>  <Max_SuCOS_Score>  (114) 
0

>  <Cum_SuCOS_Score>  (114) 
0

>  <TransFSScore_50nM>  (114) 
0.0039579999999999997

>  <TransFSScore_1uM>  (114) 
0.052929999999999998

>  <TransFSScore_10nM>  (114) 
0.023050999999999999

>  <TransFSScore_200nM>  (114) 
0.094032000000000004

>  <TransFSScore>  (114) 
0.043492749999999997

>  <FeatureSteinScore>  (114) 
0.51252419412497074

>  <XCos_RefMols>  (114) 
x1392_0,x0874_0

>  <XCos_NumHits>  (114) 
2

>  <XCos_Score1>  (114) 
11.0643

>  <XCos_Score2>  (114) 
0.1250

>  <XCos_Score3>  (114) 
0.0113

$$$$
C#CC1(O)CCN(Cc2ccno2)CC1
     RDKit          3D

 15 16  0  0  0  0  0  0  0  0999 V2000
    8.8954   -2.4490   27.5277 C   0  0  0  0  0  0  0  0  0  0  0  0
    8.9008   -3.6148   27.2155 C   0  0  0  0  0  0  0  0  0  0  0  0
    8.9029   -5.0634   26.8500 C   0  0  0  0  0  0  0  0  0  0  0  0
    8.8032   -5.6389   28.0859 O   0  0  0  0  0  0  0  0  0  0  0  0
   10.1790   -5.4496   26.1081 C   0  0  0  0  0  0  0  0  0  0  0  0
   10.3639   -4.4538   24.9672 C   0  0  0  0  0  0  0  0  0  0  0  0
    9.0875   -4.0163   24.3432 N   0  0  0  0  0  0  0  0  0  0  0  0
    9.1903   -3.4375   23.0010 C   0  0  0  0  0  0  0  0  0  0  0  0
   10.2801   -2.4285   22.8351 C   0  0  0  0  0  0  0  0  0  0  0  0
   10.1188   -1.0661   22.7059 C   0  0  0  0  0  0  0  0  0  0  0  0
   11.4092   -0.5934   22.5992 C   0  0  0  0  0  0  0  0  0  0  0  0
   12.2712   -1.6272   22.6629 N   0  0  0  0  0  0  0  0  0  0  0  0
   11.5616   -2.7089   22.8044 O   0  0  0  0  0  0  0  0  0  0  0  0
    7.9951   -5.0098   24.4542 C   0  0  0  0  0  0  0  0  0  0  0  0
    7.6957   -5.3623   25.9396 C   0  0  0  0  0  0  0  0  0  0  0  0
  1  2  3  0
  2  3  1  0
  3  4  1  0
  3  5  1  0
  5  6  1  0
  6  7  1  0
  7  8  1  0
  7 14  1  0
  8  9  1  0
  9 10  2  0
 10 11  1  0
 11 12  2  0
 12 13  1  0
 13  9  1  0
 14 15  1  0
 15  3  1  0
M  END
>  <Hit>  (115) 
Mpro-x0387_0

>  <Receptor>  (115) 
Mpro-x0305_0

>  <SCORE>  (115) 
-10.7263

>  <SCORE.norm>  (115) 
-0.71508499999999997

>  <SCORE.heavy>  (115) 
15

>  <OrigSmiles>  (115) 
C#CC1(O)CCN(Cc2ccno2)CC1

>  <SuCOS_Score>  (115) 
0.41519774913181917

>  <Max_SuCOS_Score>  (115) 
0

>  <Cum_SuCOS_Score>  (115) 
0

>  <TransFSScore_50nM>  (115) 
0.0066819999999999996

>  <TransFSScore_1uM>  (115) 
0.033592999999999998

>  <TransFSScore_10nM>  (115) 
0.0056439999999999997

>  <TransFSScore_200nM>  (115) 
0.13637199999999999

>  <TransFSScore>  (115) 
0.045572749999999995

>  <FeatureSteinScore>  (115) 
0.1683284875662871

>  <XCos_RefMols>  (115) 
x1392_0

>  <XCos_NumHits>  (115) 
1

>  <XCos_Score1>  (115) 
9.2296

>  <XCos_Score2>  (115) 
0.0000

>  <XCos_Score3>  (115) 
0.0000

$$$$
C#CC1(O)CCN(Cc2ccno2)CC1
     RDKit          3D

 15 16  0  0  0  0  0  0  0  0999 V2000
   10.3160   -5.8237   25.8992 C   0  0  0  0  0  0  0  0  0  0  0  0
    9.2021   -5.3738   26.0161 C   0  0  0  0  0  0  0  0  0  0  0  0
    7.8224   -4.8251   26.1815 C   0  0  0  0  0  0  0  0  0  0  0  0
    7.5003   -5.3120   27.4175 O   0  0  0  0  0  0  0  0  0  0  0  0
    6.8901   -5.3186   25.0792 C   0  0  0  0  0  0  0  0  0  0  0  0
    7.5790   -5.0523   23.7443 C   0  0  0  0  0  0  0  0  0  0  0  0
    8.3722   -3.7952   23.7214 N   0  0  0  0  0  0  0  0  0  0  0  0
    8.6817   -3.2512   22.3966 C   0  0  0  0  0  0  0  0  0  0  0  0
    9.8740   -2.3514   22.3513 C   0  0  0  0  0  0  0  0  0  0  0  0
    9.8997   -1.0524   21.8922 C   0  0  0  0  0  0  0  0  0  0  0  0
   11.2103   -0.6670   22.0762 C   0  0  0  0  0  0  0  0  0  0  0  0
   11.9060   -1.6887   22.6128 N   0  0  0  0  0  0  0  0  0  0  0  0
   11.0756   -2.6793   22.7642 O   0  0  0  0  0  0  0  0  0  0  0  0
    7.8839   -2.7618   24.6630 C   0  0  0  0  0  0  0  0  0  0  0  0
    7.8751   -3.2856   26.1278 C   0  0  0  0  0  0  0  0  0  0  0  0
  1  2  3  0
  2  3  1  0
  3  4  1  0
  3  5  1  0
  5  6  1  0
  6  7  1  0
  7  8  1  0
  7 14  1  0
  8  9  1  0
  9 10  2  0
 10 11  1  0
 11 12  2  0
 12 13  1  0
 13  9  1  0
 14 15  1  0
 15  3  1  0
M  END
>  <Hit>  (116) 
Mpro-x0387_0

>  <Receptor>  (116) 
Mpro-x0874_0

>  <SCORE>  (116) 
-10.8269

>  <SCORE.norm>  (116) 
-0.72179599999999999

>  <SCORE.heavy>  (116) 
15

>  <OrigSmiles>  (116) 
C#CC1(O)CCN(Cc2ccno2)CC1

>  <SuCOS_Score>  (116) 
0.29402059052592711

>  <Max_SuCOS_Score>  (116) 
0

>  <Cum_SuCOS_Score>  (116) 
0

>  <TransFSScore_50nM>  (116) 
0.0040330000000000001

>  <TransFSScore_1uM>  (116) 
0.025679

>  <TransFSScore_10nM>  (116) 
0.029512

>  <TransFSScore_200nM>  (116) 
0.109778

>  <TransFSScore>  (116) 
0.042250499999999996

>  <FeatureSteinScore>  (116) 
0.2122931935317596

>  <XCos_RefMols>  (116) 
x1392_0

>  <XCos_NumHits>  (116) 
1

>  <XCos_Score1>  (116) 
9.1447

>  <XCos_Score2>  (116) 
0.0000

>  <XCos_Score3>  (116) 
0.0000

$$$$
C#CC1(O)CCN(Cc2ccno2)CC1
     RDKit          3D

 15 16  0  0  0  0  0  0  0  0999 V2000
    8.5511   -5.6418   27.7626 C   0  0  0  0  0  0  0  0  0  0  0  0
    8.9993   -5.3459   26.6829 C   0  0  0  0  0  0  0  0  0  0  0  0
    9.5495   -4.9830   25.3573 C   0  0  0  0  0  0  0  0  0  0  0  0
    9.7778   -6.1633   24.6275 O   0  0  0  0  0  0  0  0  0  0  0  0
    8.4881   -4.1653   24.6148 C   0  0  0  0  0  0  0  0  0  0  0  0
    9.0383   -3.4899   23.3571 C   0  0  0  0  0  0  0  0  0  0  0  0
   10.3338   -2.7943   23.5776 N   0  0  0  0  0  0  0  0  0  0  0  0
   10.6028   -1.5553   22.8199 C   0  0  0  0  0  0  0  0  0  0  0  0
   12.0428   -1.2636   22.5492 C   0  0  0  0  0  0  0  0  0  0  0  0
   12.7709   -1.6620   21.4427 C   0  0  0  0  0  0  0  0  0  0  0  0
   14.0237   -1.1247   21.6574 C   0  0  0  0  0  0  0  0  0  0  0  0
   14.0075   -0.4553   22.8242 N   0  0  0  0  0  0  0  0  0  0  0  0
   12.8166   -0.5514   23.3348 O   0  0  0  0  0  0  0  0  0  0  0  0
   10.7993   -2.7553   24.9738 C   0  0  0  0  0  0  0  0  0  0  0  0
   10.8745   -4.1886   25.5301 C   0  0  0  0  0  0  0  0  0  0  0  0
  1  2  3  0
  2  3  1  0
  3  4  1  0
  3  5  1  0
  5  6  1  0
  6  7  1  0
  7  8  1  0
  7 14  1  0
  8  9  1  0
  9 10  2  0
 10 11  1  0
 11 12  2  0
 12 13  1  0
 13  9  1  0
 14 15  1  0
 15  3  1  0
M  END
>  <Hit>  (117) 
Mpro-x0387_0

>  <Receptor>  (117) 
Mpro-x0387_0

>  <SCORE>  (117) 
-11.938499999999999

>  <SCORE.norm>  (117) 
-0.79589900000000002

>  <SCORE.heavy>  (117) 
15

>  <OrigSmiles>  (117) 
C#CC1(O)CCN(Cc2ccno2)CC1

>  <SuCOS_Score>  (117) 
0.44260112640640398

>  <Max_SuCOS_Score>  (117) 
0

>  <Cum_SuCOS_Score>  (117) 
0

>  <TransFSScore_50nM>  (117) 
0.014689000000000001

>  <TransFSScore_1uM>  (117) 
0.025706

>  <TransFSScore_10nM>  (117) 
0.0037829999999999999

>  <TransFSScore_200nM>  (117) 
0.13215399999999999

>  <TransFSScore>  (117) 
0.044082999999999997

>  <FeatureSteinScore>  (117) 
0.42335792317632642

>  <XCos_RefMols>  (117) 
x1392_0

>  <XCos_NumHits>  (117) 
1

>  <XCos_Score1>  (117) 
10.4877

>  <XCos_Score2>  (117) 
0.1185

>  <XCos_Score3>  (117) 
0.0113

$$$$
C#CC1(O)CCN(Cc2ccno2)CC1
     RDKit          3D

 15 16  0  0  0  0  0  0  0  0999 V2000
    8.6222   -5.5186   27.8524 C   0  0  0  0  0  0  0  0  0  0  0  0
    9.0336   -5.2480   26.7516 C   0  0  0  0  0  0  0  0  0  0  0  0
    9.5383   -4.9160   25.4001 C   0  0  0  0  0  0  0  0  0  0  0  0
    9.6927   -6.1096   24.6727 O   0  0  0  0  0  0  0  0  0  0  0  0
    8.4755   -4.0668   24.6960 C   0  0  0  0  0  0  0  0  0  0  0  0
    8.9944   -3.4219   23.4093 C   0  0  0  0  0  0  0  0  0  0  0  0
   10.3221   -2.7715   23.5671 N   0  0  0  0  0  0  0  0  0  0  0  0
   10.6019   -1.5493   22.7865 C   0  0  0  0  0  0  0  0  0  0  0  0
   12.0452   -1.2670   22.5237 C   0  0  0  0  0  0  0  0  0  0  0  0
   12.7761   -1.6674   21.4198 C   0  0  0  0  0  0  0  0  0  0  0  0
   14.0316   -1.1397   21.6423 C   0  0  0  0  0  0  0  0  0  0  0  0
   14.0143   -0.4735   22.8109 N   0  0  0  0  0  0  0  0  0  0  0  0
   12.8202   -0.5626   23.3153 O   0  0  0  0  0  0  0  0  0  0  0  0
   10.8487   -2.7378   24.9415 C   0  0  0  0  0  0  0  0  0  0  0  0
   10.8969   -4.1682   25.5080 C   0  0  0  0  0  0  0  0  0  0  0  0
  1  2  3  0
  2  3  1  0
  3  4  1  0
  3  5  1  0
  5  6  1  0
  6  7  1  0
  7  8  1  0
  7 14  1  0
  8  9  1  0
  9 10  2  0
 10 11  1  0
 11 12  2  0
 12 13  1  0
 13  9  1  0
 14 15  1  0
 15  3  1  0
M  END
>  <Hit>  (118) 
Mpro-x0387_0

>  <Receptor>  (118) 
Mpro-x0387_0

>  <SCORE>  (118) 
-12.018000000000001

>  <SCORE.norm>  (118) 
-0.801203

>  <SCORE.heavy>  (118) 
15

>  <OrigSmiles>  (118) 
C#CC1(O)CCN(Cc2ccno2)CC1

>  <SuCOS_Score>  (118) 
0.44664623238759804

>  <Max_SuCOS_Score>  (118) 
0

>  <Cum_SuCOS_Score>  (118) 
0

>  <TransFSScore_50nM>  (118) 
0.015082999999999999

>  <TransFSScore_1uM>  (118) 
0.027394000000000002

>  <TransFSScore_10nM>  (118) 
0.0037009999999999999

>  <TransFSScore_200nM>  (118) 
0.12778400000000001

>  <TransFSScore>  (118) 
0.043490500000000001

>  <FeatureSteinScore>  (118) 
0.4316925770962316

>  <XCos_RefMols>  (118) 
x1392_0

>  <XCos_NumHits>  (118) 
1

>  <XCos_Score1>  (118) 
10.4785

>  <XCos_Score2>  (118) 
0.1184

>  <XCos_Score3>  (118) 
0.0113

$$$$
C#CC1(O)CCN(Cc2ccno2)CC1
     RDKit          3D

 15 16  0  0  0  0  0  0  0  0999 V2000
    8.5509   -5.5496   27.8213 C   0  0  0  0  0  0  0  0  0  0  0  0
    8.9832   -5.2729   26.7301 C   0  0  0  0  0  0  0  0  0  0  0  0
    9.5137   -4.9331   25.3904 C   0  0  0  0  0  0  0  0  0  0  0  0
    9.6978   -6.1238   24.6651 O   0  0  0  0  0  0  0  0  0  0  0  0
    8.4570   -4.0951   24.6641 C   0  0  0  0  0  0  0  0  0  0  0  0
    8.9966   -3.4424   23.3900 C   0  0  0  0  0  0  0  0  0  0  0  0
   10.3129   -2.7771   23.5778 N   0  0  0  0  0  0  0  0  0  0  0  0
   10.5957   -1.5505   22.8051 C   0  0  0  0  0  0  0  0  0  0  0  0
   12.0386   -1.2799   22.5282 C   0  0  0  0  0  0  0  0  0  0  0  0
   12.7634   -1.7128   21.4325 C   0  0  0  0  0  0  0  0  0  0  0  0
   14.0213   -1.1828   21.6348 C   0  0  0  0  0  0  0  0  0  0  0  0
   14.0112   -0.4845   22.7846 N   0  0  0  0  0  0  0  0  0  0  0  0
   12.8191   -0.5561   23.2965 O   0  0  0  0  0  0  0  0  0  0  0  0
   10.8087   -2.7394   24.9635 C   0  0  0  0  0  0  0  0  0  0  0  0
   10.8609   -4.1700   25.5291 C   0  0  0  0  0  0  0  0  0  0  0  0
  1  2  3  0
  2  3  1  0
  3  4  1  0
  3  5  1  0
  5  6  1  0
  6  7  1  0
  7  8  1  0
  7 14  1  0
  8  9  1  0
  9 10  2  0
 10 11  1  0
 11 12  2  0
 12 13  1  0
 13  9  1  0
 14 15  1  0
 15  3  1  0
M  END
>  <Hit>  (119) 
Mpro-x0387_0

>  <Receptor>  (119) 
Mpro-x0387_0

>  <SCORE>  (119) 
-12.0457

>  <SCORE.norm>  (119) 
-0.80304699999999996

>  <SCORE.heavy>  (119) 
15

>  <OrigSmiles>  (119) 
C#CC1(O)CCN(Cc2ccno2)CC1

>  <SuCOS_Score>  (119) 
0.44668395250633647

>  <Max_SuCOS_Score>  (119) 
0

>  <Cum_SuCOS_Score>  (119) 
0

>  <TransFSScore_50nM>  (119) 
0.015546000000000001

>  <TransFSScore_1uM>  (119) 
0.026342000000000001

>  <TransFSScore_10nM>  (119) 
0.0037469999999999999

>  <TransFSScore_200nM>  (119) 
0.128051

>  <TransFSScore>  (119) 
0.043421500000000002

>  <FeatureSteinScore>  (119) 
0.43767526962947151

>  <XCos_RefMols>  (119) 
x1392_0

>  <XCos_NumHits>  (119) 
1

>  <XCos_Score1>  (119) 
10.5778

>  <XCos_Score2>  (119) 
0.1195

>  <XCos_Score3>  (119) 
0.0113

$$$$
C#CC1(O)CCN(Cc2ccno2)CC1
     RDKit          3D

 15 16  0  0  0  0  0  0  0  0999 V2000
    8.5398   -5.5583   27.7819 C   0  0  0  0  0  0  0  0  0  0  0  0
    8.9850   -5.2796   26.6964 C   0  0  0  0  0  0  0  0  0  0  0  0
    9.5318   -4.9378   25.3638 C   0  0  0  0  0  0  0  0  0  0  0  0
    9.7435   -6.1288   24.6464 O   0  0  0  0  0  0  0  0  0  0  0  0
    8.4753   -4.1173   24.6176 C   0  0  0  0  0  0  0  0  0  0  0  0
    9.0259   -3.4622   23.3494 C   0  0  0  0  0  0  0  0  0  0  0  0
   10.3299   -2.7782   23.5550 N   0  0  0  0  0  0  0  0  0  0  0  0
   10.6082   -1.5509   22.7818 C   0  0  0  0  0  0  0  0  0  0  0  0
   12.0498   -1.2771   22.5012 C   0  0  0  0  0  0  0  0  0  0  0  0
   12.7709   -1.7029   21.4004 C   0  0  0  0  0  0  0  0  0  0  0  0
   14.0291   -1.1727   21.6011 C   0  0  0  0  0  0  0  0  0  0  0  0
   14.0224   -0.4813   22.7551 N   0  0  0  0  0  0  0  0  0  0  0  0
   12.8323   -0.5571   23.2709 O   0  0  0  0  0  0  0  0  0  0  0  0
   10.8034   -2.7283   24.9482 C   0  0  0  0  0  0  0  0  0  0  0  0
   10.8662   -4.1559   25.5204 C   0  0  0  0  0  0  0  0  0  0  0  0
  1  2  3  0
  2  3  1  0
  3  4  1  0
  3  5  1  0
  5  6  1  0
  6  7  1  0
  7  8  1  0
  7 14  1  0
  8  9  1  0
  9 10  2  0
 10 11  1  0
 11 12  2  0
 12 13  1  0
 13  9  1  0
 14 15  1  0
 15  3  1  0
M  END
>  <Hit>  (120) 
Mpro-x0387_0

>  <Receptor>  (120) 
Mpro-x0387_0

>  <SCORE>  (120) 
-12.050800000000001

>  <SCORE.norm>  (120) 
-0.80338699999999996

>  <SCORE.heavy>  (120) 
15

>  <OrigSmiles>  (120) 
C#CC1(O)CCN(Cc2ccno2)CC1

>  <SuCOS_Score>  (120) 
0.43976815124461793

>  <Max_SuCOS_Score>  (120) 
0

>  <Cum_SuCOS_Score>  (120) 
0

>  <TransFSScore_50nM>  (120) 
0.015415999999999999

>  <TransFSScore_1uM>  (120) 
0.025548000000000001

>  <TransFSScore_10nM>  (120) 
0.0036930000000000001

>  <TransFSScore_200nM>  (120) 
0.130106

>  <TransFSScore>  (120) 
0.04369075

>  <FeatureSteinScore>  (120) 
0.43001288479486216

>  <XCos_RefMols>  (120) 
x1392_0

>  <XCos_NumHits>  (120) 
1

>  <XCos_Score1>  (120) 
10.5514

>  <XCos_Score2>  (120) 
0.1192

>  <XCos_Score3>  (120) 
0.0113

$$$$
C#CC1(O)CCN(Cc2ccno2)CC1
     RDKit          3D

 15 16  0  0  0  0  0  0  0  0999 V2000
    8.4541   -5.6750   27.6667 C   0  0  0  0  0  0  0  0  0  0  0  0
    8.9087   -5.3645   26.5937 C   0  0  0  0  0  0  0  0  0  0  0  0
    9.4665   -4.9832   25.2766 C   0  0  0  0  0  0  0  0  0  0  0  0
    9.6682   -6.1509   24.5193 O   0  0  0  0  0  0  0  0  0  0  0  0
    8.4236   -4.1248   24.5541 C   0  0  0  0  0  0  0  0  0  0  0  0
    8.9886   -3.4327   23.3121 C   0  0  0  0  0  0  0  0  0  0  0  0
   10.2993   -2.7716   23.5479 N   0  0  0  0  0  0  0  0  0  0  0  0
   10.5959   -1.5216   22.8191 C   0  0  0  0  0  0  0  0  0  0  0  0
   12.0406   -1.2649   22.5383 C   0  0  0  0  0  0  0  0  0  0  0  0
   12.7624   -1.7195   21.4494 C   0  0  0  0  0  0  0  0  0  0  0  0
   14.0239   -1.1949   21.6436 C   0  0  0  0  0  0  0  0  0  0  0  0
   14.0185   -0.4790   22.7826 N   0  0  0  0  0  0  0  0  0  0  0  0
   12.8260   -0.5348   23.2954 O   0  0  0  0  0  0  0  0  0  0  0  0
   10.7658   -2.7757   24.9443 C   0  0  0  0  0  0  0  0  0  0  0  0
   10.8090   -4.2228   25.4669 C   0  0  0  0  0  0  0  0  0  0  0  0
  1  2  3  0
  2  3  1  0
  3  4  1  0
  3  5  1  0
  5  6  1  0
  6  7  1  0
  7  8  1  0
  7 14  1  0
  8  9  1  0
  9 10  2  0
 10 11  1  0
 11 12  2  0
 12 13  1  0
 13  9  1  0
 14 15  1  0
 15  3  1  0
M  END
>  <Hit>  (121) 
Mpro-x0387_0

>  <Receptor>  (121) 
Mpro-x0387_0

>  <SCORE>  (121) 
-12.095499999999999

>  <SCORE.norm>  (121) 
-0.80636699999999994

>  <SCORE.heavy>  (121) 
15

>  <OrigSmiles>  (121) 
C#CC1(O)CCN(Cc2ccno2)CC1

>  <SuCOS_Score>  (121) 
0.4388841118030351

>  <Max_SuCOS_Score>  (121) 
0

>  <Cum_SuCOS_Score>  (121) 
0

>  <TransFSScore_50nM>  (121) 
0.013901

>  <TransFSScore_1uM>  (121) 
0.025495

>  <TransFSScore_10nM>  (121) 
0.003882

>  <TransFSScore_200nM>  (121) 
0.12654399999999999

>  <TransFSScore>  (121) 
0.042455499999999993

>  <FeatureSteinScore>  (121) 
0.41093726130941194

>  <XCos_RefMols>  (121) 
x1392_0

>  <XCos_NumHits>  (121) 
1

>  <XCos_Score1>  (121) 
10.5663

>  <XCos_Score2>  (121) 
0.1194

>  <XCos_Score3>  (121) 
0.0113

$$$$
C#CC1(O)CCN(Cc2ccns2)CC1
     RDKit          3D

 15 16  0  0  0  0  0  0  0  0999 V2000
    9.0711   -4.8266   28.7225 C   0  0  0  0  0  0  0  0  0  0  0  0
    9.2771   -4.9642   27.5423 C   0  0  0  0  0  0  0  0  0  0  0  0
    9.5289   -5.1317   26.0996 C   0  0  0  0  0  0  0  0  0  0  0  0
    9.3789   -6.4978   25.7978 O   0  0  0  0  0  0  0  0  0  0  0  0
    8.4750   -4.3356   25.3251 C   0  0  0  0  0  0  0  0  0  0  0  0
    8.9902   -4.0379   23.9334 C   0  0  0  0  0  0  0  0  0  0  0  0
   10.0772   -3.0609   24.0422 N   0  0  0  0  0  0  0  0  0  0  0  0
   10.5900   -2.6651   22.7416 C   0  0  0  0  0  0  0  0  0  0  0  0
   11.6959   -1.6849   22.9651 C   0  0  0  0  0  0  0  0  0  0  0  0
   11.6690   -0.5547   23.7773 C   0  0  0  0  0  0  0  0  0  0  0  0
   12.8909    0.1490   23.7820 C   0  0  0  0  0  0  0  0  0  0  0  0
   13.8691   -0.3844   23.0095 N   0  0  0  0  0  0  0  0  0  0  0  0
   13.2296   -1.7446   22.3069 S   0  0  0  0  0  0  0  0  0  0  0  0
   11.1090   -3.3282   25.0693 C   0  0  0  0  0  0  0  0  0  0  0  0
   10.9801   -4.6922   25.7680 C   0  0  0  0  0  0  0  0  0  0  0  0
  1  2  3  0
  2  3  1  0
  3  4  1  0
  3  5  1  0
  5  6  1  0
  6  7  1  0
  7  8  1  0
  7 14  1  0
  8  9  1  0
  9 10  2  0
 10 11  1  0
 11 12  2  0
 12 13  1  0
 13  9  1  0
 14 15  1  0
 15  3  1  0
M  END
>  <Hit>  (122) 
Mpro-x0387_0

>  <Receptor>  (122) 
Mpro-x0387_0

>  <SCORE>  (122) 
-10.5732

>  <SCORE.norm>  (122) 
-0.70488200000000001

>  <SCORE.heavy>  (122) 
15

>  <OrigSmiles>  (122) 
C#CC1(O)CCN(Cc2ccns2)CC1

>  <SuCOS_Score>  (122) 
0.60048547489216453

>  <Max_SuCOS_Score>  (122) 
0

>  <Cum_SuCOS_Score>  (122) 
0

>  <TransFSScore_50nM>  (122) 
0.0032260000000000001

>  <TransFSScore_1uM>  (122) 
0.017049999999999999

>  <TransFSScore_10nM>  (122) 
0.0085869999999999991

>  <TransFSScore_200nM>  (122) 
0.033924000000000003

>  <TransFSScore>  (122) 
0.015696750000000002

>  <FeatureSteinScore>  (122) 
0.60454831560555156

>  <XCos_RefMols>  (122) 
x0387_0,x1392_0

>  <XCos_NumHits>  (122) 
2

>  <XCos_Score1>  (122) 
9.5851

>  <XCos_Score2>  (122) 
0.1625

>  <XCos_Score3>  (122) 
0.0169

$$$$
C#CC1(O)CCN(Cc2ccns2)CC1
     RDKit          3D

 15 16  0  0  0  0  0  0  0  0999 V2000
    9.0512   -4.7807   28.7028 C   0  0  0  0  0  0  0  0  0  0  0  0
    9.2756   -4.9256   27.5268 C   0  0  0  0  0  0  0  0  0  0  0  0
    9.5497   -5.1021   26.0893 C   0  0  0  0  0  0  0  0  0  0  0  0
    9.4223   -6.4726   25.7975 O   0  0  0  0  0  0  0  0  0  0  0  0
    8.4961   -4.3270   25.2933 C   0  0  0  0  0  0  0  0  0  0  0  0
    9.0266   -4.0344   23.9063 C   0  0  0  0  0  0  0  0  0  0  0  0
   10.0987   -3.0418   24.0215 N   0  0  0  0  0  0  0  0  0  0  0  0
   10.6243   -2.6503   22.7247 C   0  0  0  0  0  0  0  0  0  0  0  0
   11.7236   -1.6644   22.9555 C   0  0  0  0  0  0  0  0  0  0  0  0
   11.6904   -0.5424   23.7788 C   0  0  0  0  0  0  0  0  0  0  0  0
   12.9072    0.1699   23.7878 C   0  0  0  0  0  0  0  0  0  0  0  0
   13.8876   -0.3490   23.0083 N   0  0  0  0  0  0  0  0  0  0  0  0
   13.2564   -1.7068   22.2938 S   0  0  0  0  0  0  0  0  0  0  0  0
   11.1197   -3.2862   25.0651 C   0  0  0  0  0  0  0  0  0  0  0  0
   10.9993   -4.6458   25.7739 C   0  0  0  0  0  0  0  0  0  0  0  0
  1  2  3  0
  2  3  1  0
  3  4  1  0
  3  5  1  0
  5  6  1  0
  6  7  1  0
  7  8  1  0
  7 14  1  0
  8  9  1  0
  9 10  2  0
 10 11  1  0
 11 12  2  0
 12 13  1  0
 13  9  1  0
 14 15  1  0
 15  3  1  0
M  END
>  <Hit>  (123) 
Mpro-x0387_0

>  <Receptor>  (123) 
Mpro-x0387_0

>  <SCORE>  (123) 
-10.674099999999999

>  <SCORE.norm>  (123) 
-0.71160800000000002

>  <SCORE.heavy>  (123) 
15

>  <OrigSmiles>  (123) 
C#CC1(O)CCN(Cc2ccns2)CC1

>  <SuCOS_Score>  (123) 
0.59664891245421559

>  <Max_SuCOS_Score>  (123) 
0

>  <Cum_SuCOS_Score>  (123) 
0

>  <TransFSScore_50nM>  (123) 
0.0029320000000000001

>  <TransFSScore_1uM>  (123) 
0.016587999999999999

>  <TransFSScore_10nM>  (123) 
0.0089720000000000008

>  <TransFSScore_200nM>  (123) 
0.033360000000000001

>  <TransFSScore>  (123) 
0.015463000000000001

>  <FeatureSteinScore>  (123) 
0.60162319111533558

>  <XCos_RefMols>  (123) 
x0387_0,x1392_0

>  <XCos_NumHits>  (123) 
2

>  <XCos_Score1>  (123) 
9.4980

>  <XCos_Score2>  (123) 
0.1610

>  <XCos_Score3>  (123) 
0.0169

$$$$
C#CC1(O)CCN(Cc2ccns2)CC1
     RDKit          3D

 15 16  0  0  0  0  0  0  0  0999 V2000
    9.0263   -5.1998   28.3115 C   0  0  0  0  0  0  0  0  0  0  0  0
    9.2459   -5.2082   27.1259 C   0  0  0  0  0  0  0  0  0  0  0  0
    9.5156   -5.2190   25.6703 C   0  0  0  0  0  0  0  0  0  0  0  0
    9.4510   -6.5388   25.1853 O   0  0  0  0  0  0  0  0  0  0  0  0
    8.4499   -4.3918   24.9479 C   0  0  0  0  0  0  0  0  0  0  0  0
    8.9968   -3.9363   23.6103 C   0  0  0  0  0  0  0  0  0  0  0  0
   10.0110   -2.8989   23.8553 N   0  0  0  0  0  0  0  0  0  0  0  0
   10.5435   -2.3897   22.5917 C   0  0  0  0  0  0  0  0  0  0  0  0
   11.7062   -1.4816   22.8732 C   0  0  0  0  0  0  0  0  0  0  0  0
   11.7313   -0.3903   23.7376 C   0  0  0  0  0  0  0  0  0  0  0  0
   12.9869    0.2498   23.7824 C   0  0  0  0  0  0  0  0  0  0  0  0
   13.9425   -0.2944   22.9897 N   0  0  0  0  0  0  0  0  0  0  0  0
   13.2402   -1.5848   22.2189 S   0  0  0  0  0  0  0  0  0  0  0  0
   11.0708   -3.2796   24.8284 C   0  0  0  0  0  0  0  0  0  0  0  0
   10.9530   -4.7032   25.4035 C   0  0  0  0  0  0  0  0  0  0  0  0
  1  2  3  0
  2  3  1  0
  3  4  1  0
  3  5  1  0
  5  6  1  0
  6  7  1  0
  7  8  1  0
  7 14  1  0
  8  9  1  0
  9 10  2  0
 10 11  1  0
 11 12  2  0
 12 13  1  0
 13  9  1  0
 14 15  1  0
 15  3  1  0
M  END
>  <Hit>  (124) 
Mpro-x0387_0

>  <Receptor>  (124) 
Mpro-x0387_0

>  <SCORE>  (124) 
-11.1876

>  <SCORE.norm>  (124) 
-0.745838

>  <SCORE.heavy>  (124) 
15

>  <OrigSmiles>  (124) 
C#CC1(O)CCN(Cc2ccns2)CC1

>  <SuCOS_Score>  (124) 
0.58410695059486861

>  <Max_SuCOS_Score>  (124) 
0

>  <Cum_SuCOS_Score>  (124) 
0

>  <TransFSScore_50nM>  (124) 
0.0045450000000000004

>  <TransFSScore_1uM>  (124) 
0.011039

>  <TransFSScore_10nM>  (124) 
0.013594

>  <TransFSScore_200nM>  (124) 
0.042909000000000003

>  <TransFSScore>  (124) 
0.018021750000000003

>  <FeatureSteinScore>  (124) 
0.60571389860139546

>  <XCos_RefMols>  (124) 
x1392_0,x0387_0

>  <XCos_NumHits>  (124) 
2

>  <XCos_Score1>  (124) 
10.0932

>  <XCos_Score2>  (124) 
0.1711

>  <XCos_Score3>  (124) 
0.0169

$$$$
C#CC1(O)CCN(Cc2ccns2)CC1
     RDKit          3D

 15 16  0  0  0  0  0  0  0  0999 V2000
    8.8885   -4.8675   28.7028 C   0  0  0  0  0  0  0  0  0  0  0  0
    9.1525   -5.0006   27.5339 C   0  0  0  0  0  0  0  0  0  0  0  0
    9.4770   -5.1642   26.0988 C   0  0  0  0  0  0  0  0  0  0  0  0
    9.4279   -6.5278   25.7534 O   0  0  0  0  0  0  0  0  0  0  0  0
    8.4413   -4.4196   25.2534 C   0  0  0  0  0  0  0  0  0  0  0  0
    9.0394   -4.1065   23.8969 C   0  0  0  0  0  0  0  0  0  0  0  0
   10.0459   -3.0474   24.0695 N   0  0  0  0  0  0  0  0  0  0  0  0
   10.6270   -2.6732   22.7804 C   0  0  0  0  0  0  0  0  0  0  0  0
   11.7306   -1.6792   23.0033 C   0  0  0  0  0  0  0  0  0  0  0  0
   11.6913   -0.5454   23.8106 C   0  0  0  0  0  0  0  0  0  0  0  0
   12.9033    0.1752   23.8098 C   0  0  0  0  0  0  0  0  0  0  0  0
   13.8865   -0.3468   23.0361 N   0  0  0  0  0  0  0  0  0  0  0  0
   13.2634   -1.7175   22.3393 S   0  0  0  0  0  0  0  0  0  0  0  0
   11.0673   -3.3216   25.1167 C   0  0  0  0  0  0  0  0  0  0  0  0
   10.9247   -4.6769   25.8337 C   0  0  0  0  0  0  0  0  0  0  0  0
  1  2  3  0
  2  3  1  0
  3  4  1  0
  3  5  1  0
  5  6  1  0
  6  7  1  0
  7  8  1  0
  7 14  1  0
  8  9  1  0
  9 10  2  0
 10 11  1  0
 11 12  2  0
 12 13  1  0
 13  9  1  0
 14 15  1  0
 15  3  1  0
M  END
>  <Hit>  (125) 
Mpro-x0387_0

>  <Receptor>  (125) 
Mpro-x0387_0

>  <SCORE>  (125) 
-11.3127

>  <SCORE.norm>  (125) 
-0.75417699999999999

>  <SCORE.heavy>  (125) 
15

>  <OrigSmiles>  (125) 
C#CC1(O)CCN(Cc2ccns2)CC1

>  <SuCOS_Score>  (125) 
0.60986627697910478

>  <Max_SuCOS_Score>  (125) 
0

>  <Cum_SuCOS_Score>  (125) 
0

>  <TransFSScore_50nM>  (125) 
0.0034689999999999999

>  <TransFSScore_1uM>  (125) 
0.017221

>  <TransFSScore_10nM>  (125) 
0.0090950000000000007

>  <TransFSScore_200nM>  (125) 
0.040388

>  <TransFSScore>  (125) 
0.01754325

>  <FeatureSteinScore>  (125) 
0.61048251098415063

>  <XCos_RefMols>  (125) 
x0387_0,x1392_0

>  <XCos_NumHits>  (125) 
2

>  <XCos_Score1>  (125) 
9.4553

>  <XCos_Score2>  (125) 
0.1603

>  <XCos_Score3>  (125) 
0.0169

$$$$
C#CC1(O)CCN(Cc2ccns2)CC1
     RDKit          3D

 15 16  0  0  0  0  0  0  0  0999 V2000
    8.9213   -4.8639   28.7167 C   0  0  0  0  0  0  0  0  0  0  0  0
    9.1766   -4.9945   27.5456 C   0  0  0  0  0  0  0  0  0  0  0  0
    9.4900   -5.1553   26.1077 C   0  0  0  0  0  0  0  0  0  0  0  0
    9.4306   -6.5175   25.7583 O   0  0  0  0  0  0  0  0  0  0  0  0
    8.4525   -4.4021   25.2721 C   0  0  0  0  0  0  0  0  0  0  0  0
    9.0428   -4.0880   23.9124 C   0  0  0  0  0  0  0  0  0  0  0  0
   10.0565   -3.0351   24.0812 N   0  0  0  0  0  0  0  0  0  0  0  0
   10.6305   -2.6600   22.7892 C   0  0  0  0  0  0  0  0  0  0  0  0
   11.7400   -1.6716   23.0073 C   0  0  0  0  0  0  0  0  0  0  0  0
   11.7178   -0.5505   23.8327 C   0  0  0  0  0  0  0  0  0  0  0  0
   12.9310    0.1680   23.8209 C   0  0  0  0  0  0  0  0  0  0  0  0
   13.8989   -0.3436   23.0214 N   0  0  0  0  0  0  0  0  0  0  0  0
   13.2604   -1.7022   22.3149 S   0  0  0  0  0  0  0  0  0  0  0  0
   11.0837   -3.3185   25.1203 C   0  0  0  0  0  0  0  0  0  0  0  0
   10.9385   -4.6753   25.8339 C   0  0  0  0  0  0  0  0  0  0  0  0
  1  2  3  0
  2  3  1  0
  3  4  1  0
  3  5  1  0
  5  6  1  0
  6  7  1  0
  7  8  1  0
  7 14  1  0
  8  9  1  0
  9 10  2  0
 10 11  1  0
 11 12  2  0
 12 13  1  0
 13  9  1  0
 14 15  1  0
 15  3  1  0
M  END
>  <Hit>  (126) 
Mpro-x0387_0

>  <Receptor>  (126) 
Mpro-x0387_0

>  <SCORE>  (126) 
-11.3681

>  <SCORE.norm>  (126) 
-0.75787599999999999

>  <SCORE.heavy>  (126) 
15

>  <OrigSmiles>  (126) 
C#CC1(O)CCN(Cc2ccns2)CC1

>  <SuCOS_Score>  (126) 
0.60933124515253367

>  <Max_SuCOS_Score>  (126) 
0

>  <Cum_SuCOS_Score>  (126) 
0

>  <TransFSScore_50nM>  (126) 
0.003434

>  <TransFSScore_1uM>  (126) 
0.017637

>  <TransFSScore_10nM>  (126) 
0.0089029999999999995

>  <TransFSScore_200nM>  (126) 
0.038733999999999998

>  <TransFSScore>  (126) 
0.017176999999999998

>  <FeatureSteinScore>  (126) 
0.61048454078052972

>  <XCos_RefMols>  (126) 
x0387_0,x1392_0

>  <XCos_NumHits>  (126) 
2

>  <XCos_Score1>  (126) 
9.4704

>  <XCos_Score2>  (126) 
0.1605

>  <XCos_Score3>  (126) 
0.0169

$$$$
C#CC1(O)CCN(Cc2ccoc2)CC1
     RDKit          3D

 15 16  0  0  0  0  0  0  0  0999 V2000
    9.1618   -3.0149   27.9439 C   0  0  0  0  0  0  0  0  0  0  0  0
    9.1188   -4.0532   27.3298 C   0  0  0  0  0  0  0  0  0  0  0  0
    9.0761   -5.3243   26.5570 C   0  0  0  0  0  0  0  0  0  0  0  0
    8.7057   -6.1747   27.5539 O   0  0  0  0  0  0  0  0  0  0  0  0
   10.4476   -5.6620   25.9927 C   0  0  0  0  0  0  0  0  0  0  0  0
   10.9531   -4.4336   25.2411 C   0  0  0  0  0  0  0  0  0  0  0  0
    9.8788   -3.6714   24.5507 N   0  0  0  0  0  0  0  0  0  0  0  0
   10.3105   -2.7671   23.4805 C   0  0  0  0  0  0  0  0  0  0  0  0
   11.1389   -1.6049   23.9322 C   0  0  0  0  0  0  0  0  0  0  0  0
   11.0669   -0.9571   25.1481 C   0  0  0  0  0  0  0  0  0  0  0  0
   12.0153    0.0435   25.0881 C   0  0  0  0  0  0  0  0  0  0  0  0
   12.6243    0.0117   23.9233 O   0  0  0  0  0  0  0  0  0  0  0  0
   12.1224   -0.9665   23.2049 C   0  0  0  0  0  0  0  0  0  0  0  0
    8.7100   -4.4955   24.1647 C   0  0  0  0  0  0  0  0  0  0  0  0
    8.0662   -5.1881   25.3996 C   0  0  0  0  0  0  0  0  0  0  0  0
  1  2  3  0
  2  3  1  0
  3  4  1  0
  3  5  1  0
  5  6  1  0
  6  7  1  0
  7  8  1  0
  7 14  1  0
  8  9  1  0
  9 10  1  0
 10 11  2  0
 11 12  1  0
 12 13  1  0
 13  9  2  0
 14 15  1  0
 15  3  1  0
M  END
>  <Hit>  (127) 
Mpro-x0387_0

>  <Receptor>  (127) 
Mpro-x0387_0

>  <SCORE>  (127) 
-10.2925

>  <SCORE.norm>  (127) 
-0.686164

>  <SCORE.heavy>  (127) 
15

>  <OrigSmiles>  (127) 
C#CC1(O)CCN(Cc2ccoc2)CC1

>  <SuCOS_Score>  (127) 
0.52191968141296308

>  <Max_SuCOS_Score>  (127) 
0

>  <Cum_SuCOS_Score>  (127) 
0

>  <TransFSScore_50nM>  (127) 
0.0009859999999999999

>  <TransFSScore_1uM>  (127) 
0.029561

>  <TransFSScore_10nM>  (127) 
0.0028010000000000001

>  <TransFSScore_200nM>  (127) 
0.024628000000000001

>  <TransFSScore>  (127) 
0.014494

>  <FeatureSteinScore>  (127) 
0.24713812522443715

>  <XCos_RefMols>  (127) 
x1386_0,x1392_0

>  <XCos_NumHits>  (127) 
2

>  <XCos_Score1>  (127) 
10.0983

>  <XCos_Score2>  (127) 
0.1141

>  <XCos_Score3>  (127) 
0.0113

$$$$
C#CC1(O)CCN(Cc2ccoc2)CC1
     RDKit          3D

 15 16  0  0  0  0  0  0  0  0999 V2000
    9.0452   -3.0107   27.9592 C   0  0  0  0  0  0  0  0  0  0  0  0
    9.0726   -4.0449   27.3373 C   0  0  0  0  0  0  0  0  0  0  0  0
    9.0857   -5.3211   26.5719 C   0  0  0  0  0  0  0  0  0  0  0  0
    8.7074   -6.1750   27.5628 O   0  0  0  0  0  0  0  0  0  0  0  0
   10.4818   -5.6266   26.0511 C   0  0  0  0  0  0  0  0  0  0  0  0
   10.9780   -4.3900   25.3068 C   0  0  0  0  0  0  0  0  0  0  0  0
    9.9058   -3.6598   24.5797 N   0  0  0  0  0  0  0  0  0  0  0  0
   10.3462   -2.7508   23.5169 C   0  0  0  0  0  0  0  0  0  0  0  0
   11.1746   -1.5931   23.9798 C   0  0  0  0  0  0  0  0  0  0  0  0
   11.1106   -0.9645   25.2063 C   0  0  0  0  0  0  0  0  0  0  0  0
   12.0552    0.0401   25.1540 C   0  0  0  0  0  0  0  0  0  0  0  0
   12.6547    0.0284   23.9839 O   0  0  0  0  0  0  0  0  0  0  0  0
   12.1499   -0.9401   23.2545 C   0  0  0  0  0  0  0  0  0  0  0  0
    8.7706   -4.5160   24.1643 C   0  0  0  0  0  0  0  0  0  0  0  0
    8.1079   -5.2178   25.3839 C   0  0  0  0  0  0  0  0  0  0  0  0
  1  2  3  0
  2  3  1  0
  3  4  1  0
  3  5  1  0
  5  6  1  0
  6  7  1  0
  7  8  1  0
  7 14  1  0
  8  9  1  0
  9 10  1  0
 10 11  2  0
 11 12  1  0
 12 13  1  0
 13  9  2  0
 14 15  1  0
 15  3  1  0
M  END
>  <Hit>  (128) 
Mpro-x0387_0

>  <Receptor>  (128) 
Mpro-x0387_0

>  <SCORE>  (128) 
-10.3855

>  <SCORE.norm>  (128) 
-0.69236799999999998

>  <SCORE.heavy>  (128) 
15

>  <OrigSmiles>  (128) 
C#CC1(O)CCN(Cc2ccoc2)CC1

>  <SuCOS_Score>  (128) 
0.51710379183720689

>  <Max_SuCOS_Score>  (128) 
0

>  <Cum_SuCOS_Score>  (128) 
0

>  <TransFSScore_50nM>  (128) 
0.0010369999999999999

>  <TransFSScore_1uM>  (128) 
0.025839999999999998

>  <TransFSScore_10nM>  (128) 
0.0027529999999999998

>  <TransFSScore_200nM>  (128) 
0.023073

>  <TransFSScore>  (128) 
0.01317575

>  <FeatureSteinScore>  (128) 
0.2422648898035486

>  <XCos_RefMols>  (128) 
x1386_0,x1392_0

>  <XCos_NumHits>  (128) 
2

>  <XCos_Score1>  (128) 
9.9343

>  <XCos_Score2>  (128) 
0.0561

>  <XCos_Score3>  (128) 
0.0056

$$$$
C#CC1(O)CCN(Cc2ccoc2)CC1
     RDKit          3D

 15 16  0  0  0  0  0  0  0  0999 V2000
    9.1912   -3.0628   28.1631 C   0  0  0  0  0  0  0  0  0  0  0  0
    9.1304   -4.0447   27.4636 C   0  0  0  0  0  0  0  0  0  0  0  0
    9.0732   -5.2622   26.6096 C   0  0  0  0  0  0  0  0  0  0  0  0
    8.7024   -6.1733   27.5512 O   0  0  0  0  0  0  0  0  0  0  0  0
   10.4385   -5.5721   26.0153 C   0  0  0  0  0  0  0  0  0  0  0  0
   10.9488   -4.3009   25.3423 C   0  0  0  0  0  0  0  0  0  0  0  0
    9.8762   -3.4874   24.7104 N   0  0  0  0  0  0  0  0  0  0  0  0
   10.3082   -2.5181   23.6988 C   0  0  0  0  0  0  0  0  0  0  0  0
   11.1458   -1.3924   24.2206 C   0  0  0  0  0  0  0  0  0  0  0  0
   12.0019   -0.5896   23.4954 C   0  0  0  0  0  0  0  0  0  0  0  0
   12.5467    0.2876   24.4108 C   0  0  0  0  0  0  0  0  0  0  0  0
   12.0609    0.0424   25.6076 O   0  0  0  0  0  0  0  0  0  0  0  0
   11.2164   -0.9603   25.5291 C   0  0  0  0  0  0  0  0  0  0  0  0
    8.6988   -4.2760   24.2792 C   0  0  0  0  0  0  0  0  0  0  0  0
    8.0573   -5.0432   25.4703 C   0  0  0  0  0  0  0  0  0  0  0  0
  1  2  3  0
  2  3  1  0
  3  4  1  0
  3  5  1  0
  5  6  1  0
  6  7  1  0
  7  8  1  0
  7 14  1  0
  8  9  1  0
  9 10  1  0
 10 11  2  0
 11 12  1  0
 12 13  1  0
 13  9  2  0
 14 15  1  0
 15  3  1  0
M  END
>  <Hit>  (129) 
Mpro-x0387_0

>  <Receptor>  (129) 
Mpro-x0387_0

>  <SCORE>  (129) 
-10.48

>  <SCORE.norm>  (129) 
-0.69866600000000001

>  <SCORE.heavy>  (129) 
15

>  <OrigSmiles>  (129) 
C#CC1(O)CCN(Cc2ccoc2)CC1

>  <SuCOS_Score>  (129) 
0.51902340341258302

>  <Max_SuCOS_Score>  (129) 
0

>  <Cum_SuCOS_Score>  (129) 
0

>  <TransFSScore_50nM>  (129) 
0.00061399999999999996

>  <TransFSScore_1uM>  (129) 
0.013321

>  <TransFSScore_10nM>  (129) 
0.0058279999999999998

>  <TransFSScore_200nM>  (129) 
0.025486999999999999

>  <TransFSScore>  (129) 
0.0113125

>  <FeatureSteinScore>  (129) 
0.25079010990672518

>  <XCos_RefMols>  (129) 
x1386_0,x0770_0

>  <XCos_NumHits>  (129) 
2

>  <XCos_Score1>  (129) 
9.4932

>  <XCos_Score2>  (129) 
0.0536

>  <XCos_Score3>  (129) 
0.0056

$$$$
C#CC1(O)CCN(Cc2ccoc2)CC1
     RDKit          3D

 15 16  0  0  0  0  0  0  0  0999 V2000
    9.3039   -3.0962   28.1495 C   0  0  0  0  0  0  0  0  0  0  0  0
    9.2072   -4.0625   27.4326 C   0  0  0  0  0  0  0  0  0  0  0  0
    9.0931   -5.2661   26.5648 C   0  0  0  0  0  0  0  0  0  0  0  0
    8.7247   -6.1800   27.5047 O   0  0  0  0  0  0  0  0  0  0  0  0
   10.4322   -5.6040   25.9276 C   0  0  0  0  0  0  0  0  0  0  0  0
   10.9573   -4.3376   25.2569 C   0  0  0  0  0  0  0  0  0  0  0  0
    9.8894   -3.4873   24.6666 N   0  0  0  0  0  0  0  0  0  0  0  0
   10.3185   -2.5159   23.6558 C   0  0  0  0  0  0  0  0  0  0  0  0
   11.1574   -1.3912   24.1774 C   0  0  0  0  0  0  0  0  0  0  0  0
   12.0748   -0.6424   23.4695 C   0  0  0  0  0  0  0  0  0  0  0  0
   12.5926    0.2585   24.3774 C   0  0  0  0  0  0  0  0  0  0  0  0
   12.0344    0.0771   25.5539 O   0  0  0  0  0  0  0  0  0  0  0  0
   11.1676   -0.9058   25.4690 C   0  0  0  0  0  0  0  0  0  0  0  0
    8.6795   -4.2383   24.2591 C   0  0  0  0  0  0  0  0  0  0  0  0
    8.0516   -5.0046   25.4580 C   0  0  0  0  0  0  0  0  0  0  0  0
  1  2  3  0
  2  3  1  0
  3  4  1  0
  3  5  1  0
  5  6  1  0
  6  7  1  0
  7  8  1  0
  7 14  1  0
  8  9  1  0
  9 10  1  0
 10 11  2  0
 11 12  1  0
 12 13  1  0
 13  9  2  0
 14 15  1  0
 15  3  1  0
M  END
>  <Hit>  (130) 
Mpro-x0387_0

>  <Receptor>  (130) 
Mpro-x0387_0

>  <SCORE>  (130) 
-10.5047

>  <SCORE.norm>  (130) 
-0.70030999999999999

>  <SCORE.heavy>  (130) 
15

>  <OrigSmiles>  (130) 
C#CC1(O)CCN(Cc2ccoc2)CC1

>  <SuCOS_Score>  (130) 
0.52474263400272914

>  <Max_SuCOS_Score>  (130) 
0

>  <Cum_SuCOS_Score>  (130) 
0

>  <TransFSScore_50nM>  (130) 
0.00057700000000000004

>  <TransFSScore_1uM>  (130) 
0.014896

>  <TransFSScore_10nM>  (130) 
0.005934

>  <TransFSScore_200nM>  (130) 
0.028049999999999999

>  <TransFSScore>  (130) 
0.01236425

>  <FeatureSteinScore>  (130) 
0.25713833679700215

>  <XCos_RefMols>  (130) 
x1386_0,x0770_0

>  <XCos_NumHits>  (130) 
2

>  <XCos_Score1>  (130) 
9.6179

>  <XCos_Score2>  (130) 
0.0543

>  <XCos_Score3>  (130) 
0.0056

$$$$
C#CC1(O)CCN(Cc2ccoc2)CC1
     RDKit          3D

 15 16  0  0  0  0  0  0  0  0999 V2000
    9.6422   -2.0803   27.8358 C   0  0  0  0  0  0  0  0  0  0  0  0
    9.5411   -3.2340   27.4956 C   0  0  0  0  0  0  0  0  0  0  0  0
    9.4307   -4.6618   27.0906 C   0  0  0  0  0  0  0  0  0  0  0  0
    9.3141   -5.2308   28.3222 O   0  0  0  0  0  0  0  0  0  0  0  0
   10.6861   -5.1174   26.3627 C   0  0  0  0  0  0  0  0  0  0  0  0
   10.9583   -4.1185   25.2414 C   0  0  0  0  0  0  0  0  0  0  0  0
    9.7250   -3.5726   24.6149 N   0  0  0  0  0  0  0  0  0  0  0  0
    9.8839   -2.9697   23.2880 C   0  0  0  0  0  0  0  0  0  0  0  0
   10.9555   -1.9289   23.1921 C   0  0  0  0  0  0  0  0  0  0  0  0
   11.1827   -0.8882   24.0689 C   0  0  0  0  0  0  0  0  0  0  0  0
   12.2647   -0.2036   23.5542 C   0  0  0  0  0  0  0  0  0  0  0  0
   12.6717   -0.7812   22.4454 O   0  0  0  0  0  0  0  0  0  0  0  0
   11.9074   -1.8204   22.1991 C   0  0  0  0  0  0  0  0  0  0  0  0
    8.5582   -4.4820   24.6926 C   0  0  0  0  0  0  0  0  0  0  0  0
    8.2099   -4.8404   26.1654 C   0  0  0  0  0  0  0  0  0  0  0  0
  1  2  3  0
  2  3  1  0
  3  4  1  0
  3  5  1  0
  5  6  1  0
  6  7  1  0
  7  8  1  0
  7 14  1  0
  8  9  1  0
  9 10  1  0
 10 11  2  0
 11 12  1  0
 12 13  1  0
 13  9  2  0
 14 15  1  0
 15  3  1  0
M  END
>  <Hit>  (131) 
Mpro-x0387_0

>  <Receptor>  (131) 
Mpro-x0387_0

>  <SCORE>  (131) 
-9.7033199999999997

>  <SCORE.norm>  (131) 
-0.64688800000000002

>  <SCORE.heavy>  (131) 
15

>  <OrigSmiles>  (131) 
C#CC1(O)CCN(Cc2ccoc2)CC1

>  <SuCOS_Score>  (131) 
0.63894710774330055

>  <Max_SuCOS_Score>  (131) 
0

>  <Cum_SuCOS_Score>  (131) 
0

>  <TransFSScore_50nM>  (131) 
0.00044900000000000002

>  <TransFSScore_1uM>  (131) 
0.02853

>  <TransFSScore_10nM>  (131) 
0.0040470000000000002

>  <TransFSScore_200nM>  (131) 
0.040815999999999998

>  <TransFSScore>  (131) 
0.018460499999999998

>  <FeatureSteinScore>  (131) 
0.33581342596983366

>  <XCos_RefMols>  (131) 
x0830_0,x1392_0

>  <XCos_NumHits>  (131) 
2

>  <XCos_Score1>  (131) 
10.7416

>  <XCos_Score2>  (131) 
0.1214

>  <XCos_Score3>  (131) 
0.0113

$$$$
C#CC1(O)CCN(Cc2ccon2)CC1
     RDKit          3D

 15 16  0  0  0  0  0  0  0  0999 V2000
    8.3901   -6.0125   22.8870 C   0  0  0  0  0  0  0  0  0  0  0  0
    8.8249   -5.7791   23.9886 C   0  0  0  0  0  0  0  0  0  0  0  0
    9.3757   -5.4790   25.3381 C   0  0  0  0  0  0  0  0  0  0  0  0
    9.2117   -6.6997   25.9184 O   0  0  0  0  0  0  0  0  0  0  0  0
    8.5578   -4.3987   26.0295 C   0  0  0  0  0  0  0  0  0  0  0  0
    8.4474   -3.2173   25.0694 C   0  0  0  0  0  0  0  0  0  0  0  0
    9.6627   -3.0072   24.2383 N   0  0  0  0  0  0  0  0  0  0  0  0
    9.8104   -1.6815   23.6298 C   0  0  0  0  0  0  0  0  0  0  0  0
   11.1386   -1.4285   22.9881 C   0  0  0  0  0  0  0  0  0  0  0  0
   12.2560   -0.8840   23.5898 C   0  0  0  0  0  0  0  0  0  0  0  0
   13.1960   -0.8458   22.5772 C   0  0  0  0  0  0  0  0  0  0  0  0
   12.6538   -1.3319   21.4827 O   0  0  0  0  0  0  0  0  0  0  0  0
   11.4232   -1.6882   21.7002 N   0  0  0  0  0  0  0  0  0  0  0  0
   10.9132   -3.4888   24.8694 C   0  0  0  0  0  0  0  0  0  0  0  0
   10.8373   -5.0060   25.2031 C   0  0  0  0  0  0  0  0  0  0  0  0
  1  2  3  0
  2  3  1  0
  3  4  1  0
  3  5  1  0
  5  6  1  0
  6  7  1  0
  7  8  1  0
  7 14  1  0
  8  9  1  0
  9 10  1  0
 10 11  2  0
 11 12  1  0
 12 13  1  0
 13  9  2  0
 14 15  1  0
 15  3  1  0
M  END
>  <Hit>  (132) 
Mpro-x0387_0

>  <Receptor>  (132) 
Mpro-x0387_0

>  <SCORE>  (132) 
-10.0036

>  <SCORE.norm>  (132) 
-0.666906

>  <SCORE.heavy>  (132) 
15

>  <OrigSmiles>  (132) 
C#CC1(O)CCN(Cc2ccon2)CC1

>  <SuCOS_Score>  (132) 
0.5328839298041228

>  <Max_SuCOS_Score>  (132) 
0

>  <Cum_SuCOS_Score>  (132) 
0

>  <TransFSScore_50nM>  (132) 
0.0051830000000000001

>  <TransFSScore_1uM>  (132) 
0.025332

>  <TransFSScore_10nM>  (132) 
0.014121

>  <TransFSScore_200nM>  (132) 
0.058222000000000003

>  <TransFSScore>  (132) 
0.025714500000000001

>  <FeatureSteinScore>  (132) 
0.49877022058959353

>  <XCos_RefMols>  (132) 
x0072_0,x0387_0

>  <XCos_NumHits>  (132) 
2

>  <XCos_Score1>  (132) 
10.8484

>  <XCos_Score2>  (132) 
0.1226

>  <XCos_Score3>  (132) 
0.0113

$$$$
C#CC1(O)CCN(Cc2ccon2)CC1
     RDKit          3D

 15 16  0  0  0  0  0  0  0  0999 V2000
    9.7110   -2.0731   27.5050 C   0  0  0  0  0  0  0  0  0  0  0  0
    9.5967   -3.1961   27.0772 C   0  0  0  0  0  0  0  0  0  0  0  0
    9.4651   -4.5879   26.5673 C   0  0  0  0  0  0  0  0  0  0  0  0
    9.1899   -5.2255   27.7384 O   0  0  0  0  0  0  0  0  0  0  0  0
   10.7696   -5.0633   25.9459 C   0  0  0  0  0  0  0  0  0  0  0  0
   11.2071   -4.0123   24.9292 C   0  0  0  0  0  0  0  0  0  0  0  0
   10.0749   -3.3640   24.2153 N   0  0  0  0  0  0  0  0  0  0  0  0
   10.4044   -2.6882   22.9566 C   0  0  0  0  0  0  0  0  0  0  0  0
   11.5275   -1.7031   23.0469 C   0  0  0  0  0  0  0  0  0  0  0  0
   11.5329   -0.5198   23.7588 C   0  0  0  0  0  0  0  0  0  0  0  0
   12.7787    0.0202   23.5009 C   0  0  0  0  0  0  0  0  0  0  0  0
   13.4321   -0.7948   22.7025 O   0  0  0  0  0  0  0  0  0  0  0  0
   12.7068   -1.8339   22.4151 N   0  0  0  0  0  0  0  0  0  0  0  0
    8.8661   -4.2134   24.1085 C   0  0  0  0  0  0  0  0  0  0  0  0
    8.3446   -4.6436   25.5092 C   0  0  0  0  0  0  0  0  0  0  0  0
  1  2  3  0
  2  3  1  0
  3  4  1  0
  3  5  1  0
  5  6  1  0
  6  7  1  0
  7  8  1  0
  7 14  1  0
  8  9  1  0
  9 10  1  0
 10 11  2  0
 11 12  1  0
 12 13  1  0
 13  9  2  0
 14 15  1  0
 15  3  1  0
M  END
>  <Hit>  (133) 
Mpro-x0387_0

>  <Receptor>  (133) 
Mpro-x0387_0

>  <SCORE>  (133) 
-10.556100000000001

>  <SCORE.norm>  (133) 
-0.703739

>  <SCORE.heavy>  (133) 
15

>  <OrigSmiles>  (133) 
C#CC1(O)CCN(Cc2ccon2)CC1

>  <SuCOS_Score>  (133) 
0.676779314978594

>  <Max_SuCOS_Score>  (133) 
0

>  <Cum_SuCOS_Score>  (133) 
0

>  <TransFSScore_50nM>  (133) 
0.0023019999999999998

>  <TransFSScore_1uM>  (133) 
0.043554000000000002

>  <TransFSScore_10nM>  (133) 
0.0045030000000000001

>  <TransFSScore_200nM>  (133) 
0.024898

>  <TransFSScore>  (133) 
0.018814250000000001

>  <FeatureSteinScore>  (133) 
0.3363333309715415

>  <XCos_RefMols>  (133) 
x0387_0,x1392_0

>  <XCos_NumHits>  (133) 
2

>  <XCos_Score1>  (133) 
10.3865

>  <XCos_Score2>  (133) 
0.0587

>  <XCos_Score3>  (133) 
0.0056

$$$$
C#CC1(O)CCN(Cc2ccon2)CC1
     RDKit          3D

 15 16  0  0  0  0  0  0  0  0999 V2000
    9.7096   -2.0188   27.4757 C   0  0  0  0  0  0  0  0  0  0  0  0
    9.6027   -3.1529   27.0764 C   0  0  0  0  0  0  0  0  0  0  0  0
    9.4720   -4.5580   26.6040 C   0  0  0  0  0  0  0  0  0  0  0  0
    9.1721   -5.1604   27.7877 O   0  0  0  0  0  0  0  0  0  0  0  0
   10.7846   -5.0580   26.0201 C   0  0  0  0  0  0  0  0  0  0  0  0
   11.2464   -4.0389   24.9820 C   0  0  0  0  0  0  0  0  0  0  0  0
   10.1311   -3.4051   24.2296 N   0  0  0  0  0  0  0  0  0  0  0  0
   10.4871   -2.7672   22.9583 C   0  0  0  0  0  0  0  0  0  0  0  0
   11.5922   -1.7618   23.0468 C   0  0  0  0  0  0  0  0  0  0  0  0
   11.5973   -0.6046   23.8005 C   0  0  0  0  0  0  0  0  0  0  0  0
   12.8224   -0.0289   23.5210 C   0  0  0  0  0  0  0  0  0  0  0  0
   13.4649   -0.8007   22.6726 O   0  0  0  0  0  0  0  0  0  0  0  0
   12.7518   -1.8445   22.3720 N   0  0  0  0  0  0  0  0  0  0  0  0
    8.9195   -4.2506   24.1251 C   0  0  0  0  0  0  0  0  0  0  0  0
    8.3703   -4.6378   25.5278 C   0  0  0  0  0  0  0  0  0  0  0  0
  1  2  3  0
  2  3  1  0
  3  4  1  0
  3  5  1  0
  5  6  1  0
  6  7  1  0
  7  8  1  0
  7 14  1  0
  8  9  1  0
  9 10  1  0
 10 11  2  0
 11 12  1  0
 12 13  1  0
 13  9  2  0
 14 15  1  0
 15  3  1  0
M  END
>  <Hit>  (134) 
Mpro-x0387_0

>  <Receptor>  (134) 
Mpro-x0387_0

>  <SCORE>  (134) 
-10.5908

>  <SCORE.norm>  (134) 
-0.70605300000000004

>  <SCORE.heavy>  (134) 
15

>  <OrigSmiles>  (134) 
C#CC1(O)CCN(Cc2ccon2)CC1

>  <SuCOS_Score>  (134) 
0.67185369450738863

>  <Max_SuCOS_Score>  (134) 
0

>  <Cum_SuCOS_Score>  (134) 
0

>  <TransFSScore_50nM>  (134) 
0.0022729999999999998

>  <TransFSScore_1uM>  (134) 
0.044923999999999999

>  <TransFSScore_10nM>  (134) 
0.0044489999999999998

>  <TransFSScore_200nM>  (134) 
0.022844

>  <TransFSScore>  (134) 
0.0186225

>  <FeatureSteinScore>  (134) 
0.32621687700932317

>  <XCos_RefMols>  (134) 
x0387_0,x1392_0

>  <XCos_NumHits>  (134) 
2

>  <XCos_Score1>  (134) 
10.3255

>  <XCos_Score2>  (134) 
0.1167

>  <XCos_Score3>  (134) 
0.0113

$$$$
C#CC1(O)CCN(Cc2ccon2)CC1
     RDKit          3D

 15 16  0  0  0  0  0  0  0  0999 V2000
    9.7083   -2.0792   27.4583 C   0  0  0  0  0  0  0  0  0  0  0  0
    9.6052   -3.2151   27.0629 C   0  0  0  0  0  0  0  0  0  0  0  0
    9.4908   -4.6107   26.5593 C   0  0  0  0  0  0  0  0  0  0  0  0
    9.2065   -5.2439   27.7307 O   0  0  0  0  0  0  0  0  0  0  0  0
   10.8065   -5.0792   25.9565 C   0  0  0  0  0  0  0  0  0  0  0  0
   11.2480   -4.0305   24.9392 C   0  0  0  0  0  0  0  0  0  0  0  0
   10.1195   -3.3952   24.2080 N   0  0  0  0  0  0  0  0  0  0  0  0
   10.4589   -2.7239   22.9495 C   0  0  0  0  0  0  0  0  0  0  0  0
   11.5793   -1.7364   23.0457 C   0  0  0  0  0  0  0  0  0  0  0  0
   11.6012   -0.5837   23.8060 C   0  0  0  0  0  0  0  0  0  0  0  0
   12.8356   -0.0257   23.5320 C   0  0  0  0  0  0  0  0  0  0  0  0
   13.4676   -0.8025   22.6803 O   0  0  0  0  0  0  0  0  0  0  0  0
   12.7389   -1.8334   22.3725 N   0  0  0  0  0  0  0  0  0  0  0  0
    8.9189   -4.2549   24.0913 C   0  0  0  0  0  0  0  0  0  0  0  0
    8.3837   -4.6813   25.4880 C   0  0  0  0  0  0  0  0  0  0  0  0
  1  2  3  0
  2  3  1  0
  3  4  1  0
  3  5  1  0
  5  6  1  0
  6  7  1  0
  7  8  1  0
  7 14  1  0
  8  9  1  0
  9 10  1  0
 10 11  2  0
 11 12  1  0
 12 13  1  0
 13  9  2  0
 14 15  1  0
 15  3  1  0
M  END
>  <Hit>  (135) 
Mpro-x0387_0

>  <Receptor>  (135) 
Mpro-x0387_0

>  <SCORE>  (135) 
-10.594200000000001

>  <SCORE.norm>  (135) 
-0.70628000000000002

>  <SCORE.heavy>  (135) 
15

>  <OrigSmiles>  (135) 
C#CC1(O)CCN(Cc2ccon2)CC1

>  <SuCOS_Score>  (135) 
0.66568313779642008

>  <Max_SuCOS_Score>  (135) 
0

>  <Cum_SuCOS_Score>  (135) 
0

>  <TransFSScore_50nM>  (135) 
0.0024740000000000001

>  <TransFSScore_1uM>  (135) 
0.044843000000000001

>  <TransFSScore_10nM>  (135) 
0.0042560000000000002

>  <TransFSScore_200nM>  (135) 
0.025784000000000001

>  <TransFSScore>  (135) 
0.019339250000000002

>  <FeatureSteinScore>  (135) 
0.319678497437136

>  <XCos_RefMols>  (135) 
x0387_0,x1392_0

>  <XCos_NumHits>  (135) 
2

>  <XCos_Score1>  (135) 
10.2004

>  <XCos_Score2>  (135) 
0.0576

>  <XCos_Score3>  (135) 
0.0056

$$$$
C#CC1(O)CCN(Cc2ccon2)CC1
     RDKit          3D

 15 16  0  0  0  0  0  0  0  0999 V2000
    9.6825   -2.0729   27.4711 C   0  0  0  0  0  0  0  0  0  0  0  0
    9.5851   -3.2028   27.0578 C   0  0  0  0  0  0  0  0  0  0  0  0
    9.4845   -4.5997   26.5547 C   0  0  0  0  0  0  0  0  0  0  0  0
    9.2056   -5.2352   27.7262 O   0  0  0  0  0  0  0  0  0  0  0  0
   10.8051   -5.0556   25.9530 C   0  0  0  0  0  0  0  0  0  0  0  0
   11.2371   -4.0031   24.9356 C   0  0  0  0  0  0  0  0  0  0  0  0
   10.1030   -3.3791   24.2033 N   0  0  0  0  0  0  0  0  0  0  0  0
   10.4367   -2.7050   22.9448 C   0  0  0  0  0  0  0  0  0  0  0  0
   11.5647   -1.7256   23.0358 C   0  0  0  0  0  0  0  0  0  0  0  0
   11.5989   -0.5739   23.7972 C   0  0  0  0  0  0  0  0  0  0  0  0
   12.8357   -0.0243   23.5169 C   0  0  0  0  0  0  0  0  0  0  0  0
   13.4574   -0.8047   22.6608 O   0  0  0  0  0  0  0  0  0  0  0  0
   12.7197   -1.8300   22.3560 N   0  0  0  0  0  0  0  0  0  0  0  0
    8.9109   -4.2504   24.0862 C   0  0  0  0  0  0  0  0  0  0  0  0
    8.3789   -4.6815   25.4827 C   0  0  0  0  0  0  0  0  0  0  0  0
  1  2  3  0
  2  3  1  0
  3  4  1  0
  3  5  1  0
  5  6  1  0
  6  7  1  0
  7  8  1  0
  7 14  1  0
  8  9  1  0
  9 10  1  0
 10 11  2  0
 11 12  1  0
 12 13  1  0
 13  9  2  0
 14 15  1  0
 15  3  1  0
M  END
>  <Hit>  (136) 
Mpro-x0387_0

>  <Receptor>  (136) 
Mpro-x0387_0

>  <SCORE>  (136) 
-10.634499999999999

>  <SCORE.norm>  (136) 
-0.70896700000000001

>  <SCORE.heavy>  (136) 
15

>  <OrigSmiles>  (136) 
C#CC1(O)CCN(Cc2ccon2)CC1

>  <SuCOS_Score>  (136) 
0.66800993789782181

>  <Max_SuCOS_Score>  (136) 
0

>  <Cum_SuCOS_Score>  (136) 
0

>  <TransFSScore_50nM>  (136) 
0.0025469999999999998

>  <TransFSScore_1uM>  (136) 
0.043230999999999999

>  <TransFSScore_10nM>  (136) 
0.0043169999999999997

>  <TransFSScore_200nM>  (136) 
0.025725999999999999

>  <TransFSScore>  (136) 
0.01895525

>  <FeatureSteinScore>  (136) 
0.32724698101096811

>  <XCos_RefMols>  (136) 
x0387_0,x1392_0

>  <XCos_NumHits>  (136) 
2

>  <XCos_Score1>  (136) 
10.2738

>  <XCos_Score2>  (136) 
0.0580

>  <XCos_Score3>  (136) 
0.0056

$$$$
C#CC1(O)CCN(Cc2ccon2)CC1
     RDKit          3D

 15 16  0  0  0  0  0  0  0  0999 V2000
    8.6919   -2.2691   27.1482 C   0  0  0  0  0  0  0  0  0  0  0  0
    8.7297   -3.4175   26.7781 C   0  0  0  0  0  0  0  0  0  0  0  0
    8.7949   -4.8354   26.3313 C   0  0  0  0  0  0  0  0  0  0  0  0
    8.6799   -5.4518   27.5399 O   0  0  0  0  0  0  0  0  0  0  0  0
   10.1269   -5.1313   25.6589 C   0  0  0  0  0  0  0  0  0  0  0  0
   10.3442   -4.0745   24.5792 C   0  0  0  0  0  0  0  0  0  0  0  0
    9.0913   -3.6445   23.9032 N   0  0  0  0  0  0  0  0  0  0  0  0
    9.2496   -2.9862   22.6028 C   0  0  0  0  0  0  0  0  0  0  0  0
   10.1661   -1.8030   22.6043 C   0  0  0  0  0  0  0  0  0  0  0  0
   10.5712   -1.0737   23.7048 C   0  0  0  0  0  0  0  0  0  0  0  0
   11.3849   -0.0908   23.1736 C   0  0  0  0  0  0  0  0  0  0  0  0
   11.4382   -0.2496   21.8697 O   0  0  0  0  0  0  0  0  0  0  0  0
   10.7180   -1.2668   21.5021 N   0  0  0  0  0  0  0  0  0  0  0  0
    8.0278   -4.6756   23.8960 C   0  0  0  0  0  0  0  0  0  0  0  0
    7.6480   -5.1147   25.3389 C   0  0  0  0  0  0  0  0  0  0  0  0
  1  2  3  0
  2  3  1  0
  3  4  1  0
  3  5  1  0
  5  6  1  0
  6  7  1  0
  7  8  1  0
  7 14  1  0
  8  9  1  0
  9 10  1  0
 10 11  2  0
 11 12  1  0
 12 13  1  0
 13  9  2  0
 14 15  1  0
 15  3  1  0
M  END
>  <Hit>  (137) 
Mpro-x0387_0

>  <Receptor>  (137) 
Mpro-x1249_0

>  <SCORE>  (137) 
-11.3193

>  <SCORE.norm>  (137) 
-0.75462099999999999

>  <SCORE.heavy>  (137) 
15

>  <OrigSmiles>  (137) 
C#CC1(O)CCN(Cc2ccon2)CC1

>  <SuCOS_Score>  (137) 
0.4407986507205135

>  <Max_SuCOS_Score>  (137) 
0

>  <Cum_SuCOS_Score>  (137) 
0

>  <TransFSScore_50nM>  (137) 
0.0020539999999999998

>  <TransFSScore_1uM>  (137) 
0.033951000000000002

>  <TransFSScore_10nM>  (137) 
0.010652

>  <TransFSScore_200nM>  (137) 
0.048682000000000003

>  <TransFSScore>  (137) 
0.023834750000000002

>  <FeatureSteinScore>  (137) 
0.35708668299355434

>  <XCos_RefMols>  (137) 
x1392_0,x1382_0

>  <XCos_NumHits>  (137) 
2

>  <XCos_Score1>  (137) 
10.6150

>  <XCos_Score2>  (137) 
0.0000

>  <XCos_Score3>  (137) 
0.0000

$$$$
C#CC1(O)CCN(Cc2ccon2)CC1
     RDKit          3D

 15 16  0  0  0  0  0  0  0  0999 V2000
    8.7415   -2.2739   27.1729 C   0  0  0  0  0  0  0  0  0  0  0  0
    8.7558   -3.4241   26.8072 C   0  0  0  0  0  0  0  0  0  0  0  0
    8.7945   -4.8419   26.3567 C   0  0  0  0  0  0  0  0  0  0  0  0
    8.6855   -5.4591   27.5655 O   0  0  0  0  0  0  0  0  0  0  0  0
   10.1135   -5.1559   25.6672 C   0  0  0  0  0  0  0  0  0  0  0  0
   10.3330   -4.1001   24.5870 C   0  0  0  0  0  0  0  0  0  0  0  0
    9.0782   -3.6503   23.9275 N   0  0  0  0  0  0  0  0  0  0  0  0
    9.2301   -2.9915   22.6265 C   0  0  0  0  0  0  0  0  0  0  0  0
   10.1592   -1.8182   22.6203 C   0  0  0  0  0  0  0  0  0  0  0  0
   10.5523   -1.0704   23.7128 C   0  0  0  0  0  0  0  0  0  0  0  0
   11.3862   -0.1075   23.1763 C   0  0  0  0  0  0  0  0  0  0  0  0
   11.4613   -0.2940   21.8771 O   0  0  0  0  0  0  0  0  0  0  0  0
   10.7368   -1.3110   21.5175 N   0  0  0  0  0  0  0  0  0  0  0  0
    7.9996   -4.6655   23.9315 C   0  0  0  0  0  0  0  0  0  0  0  0
    7.6313   -5.1020   25.3782 C   0  0  0  0  0  0  0  0  0  0  0  0
  1  2  3  0
  2  3  1  0
  3  4  1  0
  3  5  1  0
  5  6  1  0
  6  7  1  0
  7  8  1  0
  7 14  1  0
  8  9  1  0
  9 10  1  0
 10 11  2  0
 11 12  1  0
 12 13  1  0
 13  9  2  0
 14 15  1  0
 15  3  1  0
M  END
>  <Hit>  (138) 
Mpro-x0387_0

>  <Receptor>  (138) 
Mpro-x1249_0

>  <SCORE>  (138) 
-11.3742

>  <SCORE.norm>  (138) 
-0.75827800000000001

>  <SCORE.heavy>  (138) 
15

>  <OrigSmiles>  (138) 
C#CC1(O)CCN(Cc2ccon2)CC1

>  <SuCOS_Score>  (138) 
0.44225243860100727

>  <Max_SuCOS_Score>  (138) 
0

>  <Cum_SuCOS_Score>  (138) 
0

>  <TransFSScore_50nM>  (138) 
0.0020639999999999999

>  <TransFSScore_1uM>  (138) 
0.033849999999999998

>  <TransFSScore_10nM>  (138) 
0.01074

>  <TransFSScore_200nM>  (138) 
0.051547000000000003

>  <TransFSScore>  (138) 
0.024550250000000003

>  <FeatureSteinScore>  (138) 
0.35216532955142205

>  <XCos_RefMols>  (138) 
x1392_0,x1382_0

>  <XCos_NumHits>  (138) 
2

>  <XCos_Score1>  (138) 
10.5582

>  <XCos_Score2>  (138) 
0.0000

>  <XCos_Score3>  (138) 
0.0000

$$$$
C#CC1(O)CCN(Cc2ccon2)CC1
     RDKit          3D

 15 16  0  0  0  0  0  0  0  0999 V2000
    8.7394   -2.2693   27.1517 C   0  0  0  0  0  0  0  0  0  0  0  0
    8.7765   -3.4241   26.8021 C   0  0  0  0  0  0  0  0  0  0  0  0
    8.8084   -4.8434   26.3559 C   0  0  0  0  0  0  0  0  0  0  0  0
    8.7222   -5.4565   27.5685 O   0  0  0  0  0  0  0  0  0  0  0  0
   10.1149   -5.1584   25.6433 C   0  0  0  0  0  0  0  0  0  0  0  0
   10.3134   -4.1061   24.5557 C   0  0  0  0  0  0  0  0  0  0  0  0
    9.0463   -3.6598   23.9178 N   0  0  0  0  0  0  0  0  0  0  0  0
    9.1736   -3.0054   22.6120 C   0  0  0  0  0  0  0  0  0  0  0  0
   10.1219   -1.8481   22.5783 C   0  0  0  0  0  0  0  0  0  0  0  0
   10.5580   -1.1061   23.6583 C   0  0  0  0  0  0  0  0  0  0  0  0
   11.3928   -0.1579   23.0976 C   0  0  0  0  0  0  0  0  0  0  0  0
   11.4284   -0.3468   21.7970 O   0  0  0  0  0  0  0  0  0  0  0  0
   10.6770   -1.3516   21.4591 N   0  0  0  0  0  0  0  0  0  0  0  0
    7.9690   -4.6761   23.9450 C   0  0  0  0  0  0  0  0  0  0  0  0
    7.6278   -5.1081   25.3997 C   0  0  0  0  0  0  0  0  0  0  0  0
  1  2  3  0
  2  3  1  0
  3  4  1  0
  3  5  1  0
  5  6  1  0
  6  7  1  0
  7  8  1  0
  7 14  1  0
  8  9  1  0
  9 10  1  0
 10 11  2  0
 11 12  1  0
 12 13  1  0
 13  9  2  0
 14 15  1  0
 15  3  1  0
M  END
>  <Hit>  (139) 
Mpro-x0387_0

>  <Receptor>  (139) 
Mpro-x1249_0

>  <SCORE>  (139) 
-11.4306

>  <SCORE.norm>  (139) 
-0.76203799999999999

>  <SCORE.heavy>  (139) 
15

>  <OrigSmiles>  (139) 
C#CC1(O)CCN(Cc2ccon2)CC1

>  <SuCOS_Score>  (139) 
0.43964296404068959

>  <Max_SuCOS_Score>  (139) 
0

>  <Cum_SuCOS_Score>  (139) 
0

>  <TransFSScore_50nM>  (139) 
0.0020609999999999999

>  <TransFSScore_1uM>  (139) 
0.033141999999999998

>  <TransFSScore_10nM>  (139) 
0.011077

>  <TransFSScore_200nM>  (139) 
0.054274999999999997

>  <TransFSScore>  (139) 
0.025138750000000001

>  <FeatureSteinScore>  (139) 
0.34535078051176427

>  <XCos_RefMols>  (139) 
x1392_0,x1382_0

>  <XCos_NumHits>  (139) 
2

>  <XCos_Score1>  (139) 
10.4890

>  <XCos_Score2>  (139) 
0.0000

>  <XCos_Score3>  (139) 
0.0000

$$$$
C#CC1(O)CCN(Cc2ccon2)CC1
     RDKit          3D

 15 16  0  0  0  0  0  0  0  0999 V2000
    8.7432   -2.2589   27.1465 C   0  0  0  0  0  0  0  0  0  0  0  0
    8.7464   -3.4159   26.8023 C   0  0  0  0  0  0  0  0  0  0  0  0
    8.7606   -4.8369   26.3606 C   0  0  0  0  0  0  0  0  0  0  0  0
    8.6603   -5.4449   27.5747 O   0  0  0  0  0  0  0  0  0  0  0  0
   10.0659   -5.1722   25.6551 C   0  0  0  0  0  0  0  0  0  0  0  0
   10.2841   -4.1262   24.5653 C   0  0  0  0  0  0  0  0  0  0  0  0
    9.0263   -3.6643   23.9200 N   0  0  0  0  0  0  0  0  0  0  0  0
    9.1688   -3.0158   22.6129 C   0  0  0  0  0  0  0  0  0  0  0  0
   10.1244   -1.8644   22.5828 C   0  0  0  0  0  0  0  0  0  0  0  0
   10.5559   -1.1209   23.6637 C   0  0  0  0  0  0  0  0  0  0  0  0
   11.4012   -0.1800   23.1065 C   0  0  0  0  0  0  0  0  0  0  0  0
   11.4466   -0.3741   21.8070 O   0  0  0  0  0  0  0  0  0  0  0  0
   10.6920   -1.3757   21.4666 N   0  0  0  0  0  0  0  0  0  0  0  0
    7.9349   -4.6654   23.9453 C   0  0  0  0  0  0  0  0  0  0  0  0
    7.5809   -5.0880   25.3997 C   0  0  0  0  0  0  0  0  0  0  0  0
  1  2  3  0
  2  3  1  0
  3  4  1  0
  3  5  1  0
  5  6  1  0
  6  7  1  0
  7  8  1  0
  7 14  1  0
  8  9  1  0
  9 10  1  0
 10 11  2  0
 11 12  1  0
 12 13  1  0
 13  9  2  0
 14 15  1  0
 15  3  1  0
M  END
>  <Hit>  (140) 
Mpro-x0387_0

>  <Receptor>  (140) 
Mpro-x1249_0

>  <SCORE>  (140) 
-11.449400000000001

>  <SCORE.norm>  (140) 
-0.76329599999999997

>  <SCORE.heavy>  (140) 
15

>  <OrigSmiles>  (140) 
C#CC1(O)CCN(Cc2ccon2)CC1

>  <SuCOS_Score>  (140) 
0.43537299010552433

>  <Max_SuCOS_Score>  (140) 
0

>  <Cum_SuCOS_Score>  (140) 
0

>  <TransFSScore_50nM>  (140) 
0.0020400000000000001

>  <TransFSScore_1uM>  (140) 
0.033349999999999998

>  <TransFSScore_10nM>  (140) 
0.011119

>  <TransFSScore_200nM>  (140) 
0.055162999999999997

>  <TransFSScore>  (140) 
0.025417999999999996

>  <FeatureSteinScore>  (140) 
0.34652695199597544

>  <XCos_RefMols>  (140) 
x1392_0,x1382_0

>  <XCos_NumHits>  (140) 
2

>  <XCos_Score1>  (140) 
10.5235

>  <XCos_Score2>  (140) 
0.0000

>  <XCos_Score3>  (140) 
0.0000

$$$$
C#CC1(O)CCN(Cc2ccon2)CC1
     RDKit          3D

 15 16  0  0  0  0  0  0  0  0999 V2000
    8.6935   -2.2767   27.1623 C   0  0  0  0  0  0  0  0  0  0  0  0
    8.7319   -3.4353   26.8256 C   0  0  0  0  0  0  0  0  0  0  0  0
    8.7727   -4.8581   26.3914 C   0  0  0  0  0  0  0  0  0  0  0  0
    8.6793   -5.4616   27.6084 O   0  0  0  0  0  0  0  0  0  0  0  0
   10.0859   -5.1739   25.6917 C   0  0  0  0  0  0  0  0  0  0  0  0
   10.2889   -4.1299   24.5970 C   0  0  0  0  0  0  0  0  0  0  0  0
    9.0252   -3.6937   23.9456 N   0  0  0  0  0  0  0  0  0  0  0  0
    9.1602   -3.0496   22.6354 C   0  0  0  0  0  0  0  0  0  0  0  0
   10.1071   -1.8912   22.5987 C   0  0  0  0  0  0  0  0  0  0  0  0
   10.5270   -1.1335   23.6743 C   0  0  0  0  0  0  0  0  0  0  0  0
   11.3680   -0.1917   23.1120 C   0  0  0  0  0  0  0  0  0  0  0  0
   11.4218   -0.3985   21.8148 O   0  0  0  0  0  0  0  0  0  0  0  0
   10.6767   -1.4093   21.4806 N   0  0  0  0  0  0  0  0  0  0  0  0
    7.9516   -4.7139   23.9728 C   0  0  0  0  0  0  0  0  0  0  0  0
    7.6006   -5.1352   25.4283 C   0  0  0  0  0  0  0  0  0  0  0  0
  1  2  3  0
  2  3  1  0
  3  4  1  0
  3  5  1  0
  5  6  1  0
  6  7  1  0
  7  8  1  0
  7 14  1  0
  8  9  1  0
  9 10  1  0
 10 11  2  0
 11 12  1  0
 12 13  1  0
 13  9  2  0
 14 15  1  0
 15  3  1  0
M  END
>  <Hit>  (141) 
Mpro-x0387_0

>  <Receptor>  (141) 
Mpro-x1249_0

>  <SCORE>  (141) 
-11.5318

>  <SCORE.norm>  (141) 
-0.76878299999999999

>  <SCORE.heavy>  (141) 
15

>  <OrigSmiles>  (141) 
C#CC1(O)CCN(Cc2ccon2)CC1

>  <SuCOS_Score>  (141) 
0.43310887610552157

>  <Max_SuCOS_Score>  (141) 
0

>  <Cum_SuCOS_Score>  (141) 
0

>  <TransFSScore_50nM>  (141) 
0.0020950000000000001

>  <TransFSScore_1uM>  (141) 
0.033103

>  <TransFSScore_10nM>  (141) 
0.011169999999999999

>  <TransFSScore_200nM>  (141) 
0.056656999999999999

>  <TransFSScore>  (141) 
0.025756250000000001

>  <FeatureSteinScore>  (141) 
0.33957490707948368

>  <XCos_RefMols>  (141) 
x1392_0,x1382_0

>  <XCos_NumHits>  (141) 
2

>  <XCos_Score1>  (141) 
10.4566

>  <XCos_Score2>  (141) 
0.0000

>  <XCos_Score3>  (141) 
0.0000

$$$$
C#CC1(O)CCN(Cc2ccsc2Cl)CC1
     RDKit          3D

 16 17  0  0  0  0  0  0  0  0999 V2000
    7.8957   -5.4899   21.9733 C   0  0  0  0  0  0  0  0  0  0  0  0
    8.1166   -4.8697   22.9850 C   0  0  0  0  0  0  0  0  0  0  0  0
    8.3852   -4.1198   24.2473 C   0  0  0  0  0  0  0  0  0  0  0  0
    7.6385   -4.8549   25.1192 O   0  0  0  0  0  0  0  0  0  0  0  0
    7.8576   -2.6970   24.1608 C   0  0  0  0  0  0  0  0  0  0  0  0
    8.4141   -2.0720   22.8841 C   0  0  0  0  0  0  0  0  0  0  0  0
    9.7964   -2.5167   22.5661 N   0  0  0  0  0  0  0  0  0  0  0  0
   10.5138   -1.7546   21.5356 C   0  0  0  0  0  0  0  0  0  0  0  0
   11.6865   -0.9738   22.0412 C   0  0  0  0  0  0  0  0  0  0  0  0
   13.0229   -1.1586   21.6214 C   0  0  0  0  0  0  0  0  0  0  0  0
   13.9244   -0.3609   22.3216 C   0  0  0  0  0  0  0  0  0  0  0  0
   13.0611    0.5751   23.4160 S   0  0  0  0  0  0  0  0  0  0  0  0
   11.5475   -0.0041   23.0245 C   0  0  0  0  0  0  0  0  0  0  0  0
   10.0601    0.5149   23.7988 Cl  0  0  0  0  0  0  0  0  0  0  0  0
   10.5974   -2.9020   23.7489 C   0  0  0  0  0  0  0  0  0  0  0  0
    9.9086   -4.0657   24.5281 C   0  0  0  0  0  0  0  0  0  0  0  0
  1  2  3  0
  2  3  1  0
  3  4  1  0
  3  5  1  0
  5  6  1  0
  6  7  1  0
  7  8  1  0
  7 15  1  0
  8  9  1  0
  9 10  1  0
 10 11  2  0
 11 12  1  0
 12 13  1  0
 13 14  1  0
 13  9  2  0
 15 16  1  0
 16  3  1  0
M  END
>  <Hit>  (142) 
Mpro-x0387_0

>  <Receptor>  (142) 
Mpro-x0874_0

>  <SCORE>  (142) 
-12.498200000000001

>  <SCORE.norm>  (142) 
-0.78113600000000005

>  <SCORE.heavy>  (142) 
16

>  <OrigSmiles>  (142) 
C#CC1(O)CCN(Cc2ccsc2Cl)CC1

>  <SuCOS_Score>  (142) 
0.39965316204400708

>  <Max_SuCOS_Score>  (142) 
0

>  <Cum_SuCOS_Score>  (142) 
0

>  <TransFSScore_50nM>  (142) 
0.001165

>  <TransFSScore_1uM>  (142) 
0.026665000000000001

>  <TransFSScore_10nM>  (142) 
0.0086719999999999992

>  <TransFSScore_200nM>  (142) 
0.021323000000000002

>  <TransFSScore>  (142) 
0.01445625

>  <FeatureSteinScore>  (142) 
0.43083938336596694

>  <XCos_RefMols>  (142) 
x0874_0,x0967_0

>  <XCos_NumHits>  (142) 
2

>  <XCos_Score1>  (142) 
11.1367

>  <XCos_Score2>  (142) 
0.0629

>  <XCos_Score3>  (142) 
0.0056

$$$$
C#CC1(O)CCN(Cc2ccsc2Cl)CC1
     RDKit          3D

 16 17  0  0  0  0  0  0  0  0999 V2000
    8.0520   -5.7135   22.3293 C   0  0  0  0  0  0  0  0  0  0  0  0
    8.3130   -5.1563   23.3677 C   0  0  0  0  0  0  0  0  0  0  0  0
    8.6490   -4.4548   24.6417 C   0  0  0  0  0  0  0  0  0  0  0  0
    8.0029   -5.2618   25.5302 O   0  0  0  0  0  0  0  0  0  0  0  0
    8.0596   -3.0541   24.6666 C   0  0  0  0  0  0  0  0  0  0  0  0
    8.4891   -2.3466   23.3839 C   0  0  0  0  0  0  0  0  0  0  0  0
    9.8590   -2.7149   22.9399 N   0  0  0  0  0  0  0  0  0  0  0  0
   10.4625   -1.8749   21.8969 C   0  0  0  0  0  0  0  0  0  0  0  0
   11.6339   -1.0618   22.3521 C   0  0  0  0  0  0  0  0  0  0  0  0
   12.9716   -1.2750   21.9502 C   0  0  0  0  0  0  0  0  0  0  0  0
   13.8712   -0.4318   22.5974 C   0  0  0  0  0  0  0  0  0  0  0  0
   13.0048    0.5768   23.6226 S   0  0  0  0  0  0  0  0  0  0  0  0
   11.4922   -0.0273   23.2666 C   0  0  0  0  0  0  0  0  0  0  0  0
   10.0025    0.5436   23.9988 Cl  0  0  0  0  0  0  0  0  0  0  0  0
   10.7649   -3.1192   24.0376 C   0  0  0  0  0  0  0  0  0  0  0  0
   10.1864   -4.3471   24.8081 C   0  0  0  0  0  0  0  0  0  0  0  0
  1  2  3  0
  2  3  1  0
  3  4  1  0
  3  5  1  0
  5  6  1  0
  6  7  1  0
  7  8  1  0
  7 15  1  0
  8  9  1  0
  9 10  1  0
 10 11  2  0
 11 12  1  0
 12 13  1  0
 13 14  1  0
 13  9  2  0
 15 16  1  0
 16  3  1  0
M  END
>  <Hit>  (143) 
Mpro-x0387_0

>  <Receptor>  (143) 
Mpro-x0305_0

>  <SCORE>  (143) 
-13.016999999999999

>  <SCORE.norm>  (143) 
-0.81356300000000004

>  <SCORE.heavy>  (143) 
16

>  <OrigSmiles>  (143) 
C#CC1(O)CCN(Cc2ccsc2Cl)CC1

>  <SuCOS_Score>  (143) 
0.47885294762142672

>  <Max_SuCOS_Score>  (143) 
0

>  <Cum_SuCOS_Score>  (143) 
0

>  <TransFSScore_50nM>  (143) 
0.00059500000000000004

>  <TransFSScore_1uM>  (143) 
0.016778000000000001

>  <TransFSScore_10nM>  (143) 
0.011247

>  <TransFSScore_200nM>  (143) 
0.018201999999999999

>  <TransFSScore>  (143) 
0.011705500000000001

>  <FeatureSteinScore>  (143) 
0.57869638381509114

>  <XCos_RefMols>  (143) 
x0874_0,x1392_0

>  <XCos_NumHits>  (143) 
2

>  <XCos_Score1>  (143) 
11.8706

>  <XCos_Score2>  (143) 
0.3353

>  <XCos_Score3>  (143) 
0.0282

$$$$
C#CC1(O)CCN(Cc2ccsc2Cl)CC1
     RDKit          3D

 16 17  0  0  0  0  0  0  0  0999 V2000
    9.4358   -1.0000   26.5159 C   0  0  0  0  0  0  0  0  0  0  0  0
    9.1705   -2.1020   26.1009 C   0  0  0  0  0  0  0  0  0  0  0  0
    8.8495   -3.4730   25.6057 C   0  0  0  0  0  0  0  0  0  0  0  0
    8.4176   -4.0451   26.7651 O   0  0  0  0  0  0  0  0  0  0  0  0
   10.0967   -4.1762   25.0959 C   0  0  0  0  0  0  0  0  0  0  0  0
   10.7758   -3.2479   24.0921 C   0  0  0  0  0  0  0  0  0  0  0  0
    9.8147   -2.4623   23.2745 N   0  0  0  0  0  0  0  0  0  0  0  0
   10.3595   -1.7732   22.0972 C   0  0  0  0  0  0  0  0  0  0  0  0
   11.6652   -1.0794   22.3301 C   0  0  0  0  0  0  0  0  0  0  0  0
   12.9362   -1.6391   22.0697 C   0  0  0  0  0  0  0  0  0  0  0  0
   13.9828   -0.8097   22.4645 C   0  0  0  0  0  0  0  0  0  0  0  0
   13.3283    0.6027   23.0937 S   0  0  0  0  0  0  0  0  0  0  0  0
   11.7264    0.1950   22.8766 C   0  0  0  0  0  0  0  0  0  0  0  0
   10.3755    1.2178   23.3351 Cl  0  0  0  0  0  0  0  0  0  0  0  0
    8.5039   -3.1201   23.0795 C   0  0  0  0  0  0  0  0  0  0  0  0
    7.8165   -3.4010   24.4523 C   0  0  0  0  0  0  0  0  0  0  0  0
  1  2  3  0
  2  3  1  0
  3  4  1  0
  3  5  1  0
  5  6  1  0
  6  7  1  0
  7  8  1  0
  7 15  1  0
  8  9  1  0
  9 10  1  0
 10 11  2  0
 11 12  1  0
 12 13  1  0
 13 14  1  0
 13  9  2  0
 15 16  1  0
 16  3  1  0
M  END
>  <Hit>  (144) 
Mpro-x0387_0

>  <Receptor>  (144) 
Mpro-x0305_0

>  <SCORE>  (144) 
-13.038500000000001

>  <SCORE.norm>  (144) 
-0.81490700000000005

>  <SCORE.heavy>  (144) 
16

>  <OrigSmiles>  (144) 
C#CC1(O)CCN(Cc2ccsc2Cl)CC1

>  <SuCOS_Score>  (144) 
0.50218488128842431

>  <Max_SuCOS_Score>  (144) 
0

>  <Cum_SuCOS_Score>  (144) 
0

>  <TransFSScore_50nM>  (144) 
0.001243

>  <TransFSScore_1uM>  (144) 
0.019112000000000001

>  <TransFSScore_10nM>  (144) 
0.0075599999999999999

>  <TransFSScore_200nM>  (144) 
0.044729999999999999

>  <TransFSScore>  (144) 
0.01816125

>  <FeatureSteinScore>  (144) 
0.47834261148857582

>  <XCos_RefMols>  (144) 
x1392_0,x0874_0

>  <XCos_NumHits>  (144) 
2

>  <XCos_Score1>  (144) 
11.3093

>  <XCos_Score2>  (144) 
0.1917

>  <XCos_Score3>  (144) 
0.0169

$$$$
C#CC1(O)CCN(Cc2ccsc2Cl)CC1
     RDKit          3D

 16 17  0  0  0  0  0  0  0  0999 V2000
    9.1164   -1.7181   26.8113 C   0  0  0  0  0  0  0  0  0  0  0  0
    9.0379   -2.7434   26.1792 C   0  0  0  0  0  0  0  0  0  0  0  0
    8.9487   -4.0217   25.4137 C   0  0  0  0  0  0  0  0  0  0  0  0
    8.5626   -4.8655   26.4123 O   0  0  0  0  0  0  0  0  0  0  0  0
   10.3076   -4.4279   24.8674 C   0  0  0  0  0  0  0  0  0  0  0  0
   10.8776   -3.2342   24.1055 C   0  0  0  0  0  0  0  0  0  0  0  0
    9.8419   -2.4470   23.3864 N   0  0  0  0  0  0  0  0  0  0  0  0
   10.3224   -1.4702   22.4002 C   0  0  0  0  0  0  0  0  0  0  0  0
   11.4029   -0.5620   22.8982 C   0  0  0  0  0  0  0  0  0  0  0  0
   11.2214    0.4634   23.8533 C   0  0  0  0  0  0  0  0  0  0  0  0
   12.3746    1.2146   24.0653 C   0  0  0  0  0  0  0  0  0  0  0  0
   13.5981    0.5861   23.1025 S   0  0  0  0  0  0  0  0  0  0  0  0
   12.7004   -0.6366   22.4107 C   0  0  0  0  0  0  0  0  0  0  0  0
   13.3226   -1.7683   21.2219 Cl  0  0  0  0  0  0  0  0  0  0  0  0
    8.6549   -3.2320   22.9816 C   0  0  0  0  0  0  0  0  0  0  0  0
    7.9637   -3.8711   24.2264 C   0  0  0  0  0  0  0  0  0  0  0  0
  1  2  3  0
  2  3  1  0
  3  4  1  0
  3  5  1  0
  5  6  1  0
  6  7  1  0
  7  8  1  0
  7 15  1  0
  8  9  1  0
  9 10  1  0
 10 11  2  0
 11 12  1  0
 12 13  1  0
 13 14  1  0
 13  9  2  0
 15 16  1  0
 16  3  1  0
M  END
>  <Hit>  (145) 
Mpro-x0387_0

>  <Receptor>  (145) 
Mpro-x0305_0

>  <SCORE>  (145) 
-13.1699

>  <SCORE.norm>  (145) 
-0.82311999999999996

>  <SCORE.heavy>  (145) 
16

>  <OrigSmiles>  (145) 
C#CC1(O)CCN(Cc2ccsc2Cl)CC1

>  <SuCOS_Score>  (145) 
0.50732447839568628

>  <Max_SuCOS_Score>  (145) 
0

>  <Cum_SuCOS_Score>  (145) 
0

>  <TransFSScore_50nM>  (145) 
0.001689

>  <TransFSScore_1uM>  (145) 
0.016478

>  <TransFSScore_10nM>  (145) 
0.009443

>  <TransFSScore_200nM>  (145) 
0.102654

>  <TransFSScore>  (145) 
0.032565999999999998

>  <FeatureSteinScore>  (145) 
0.63607540934184126

>  <XCos_RefMols>  (145) 
x1392_0,x1249_0

>  <XCos_NumHits>  (145) 
2

>  <XCos_Score1>  (145) 
12.2360

>  <XCos_Score2>  (145) 
0.4148

>  <XCos_Score3>  (145) 
0.0339

$$$$
C#CC1(O)CCN(Cc2ccsc2Cl)CC1
     RDKit          3D

 16 17  0  0  0  0  0  0  0  0999 V2000
    9.0677   -1.7007   26.7729 C   0  0  0  0  0  0  0  0  0  0  0  0
    9.0261   -2.7455   26.1701 C   0  0  0  0  0  0  0  0  0  0  0  0
    8.9601   -4.0295   25.4117 C   0  0  0  0  0  0  0  0  0  0  0  0
    8.5621   -4.8695   26.4088 O   0  0  0  0  0  0  0  0  0  0  0  0
   10.3317   -4.4292   24.8929 C   0  0  0  0  0  0  0  0  0  0  0  0
   10.9067   -3.2364   24.1334 C   0  0  0  0  0  0  0  0  0  0  0  0
    9.8785   -2.4616   23.3904 N   0  0  0  0  0  0  0  0  0  0  0  0
   10.3697   -1.4878   22.4065 C   0  0  0  0  0  0  0  0  0  0  0  0
   11.4399   -0.5734   22.9156 C   0  0  0  0  0  0  0  0  0  0  0  0
   11.2492    0.4302   23.8917 C   0  0  0  0  0  0  0  0  0  0  0  0
   12.3925    1.1944   24.1114 C   0  0  0  0  0  0  0  0  0  0  0  0
   13.6190    0.6032   23.1289 S   0  0  0  0  0  0  0  0  0  0  0  0
   12.7351   -0.6191   22.4188 C   0  0  0  0  0  0  0  0  0  0  0  0
   13.3664   -1.7179   21.2042 Cl  0  0  0  0  0  0  0  0  0  0  0  0
    8.7048   -3.2580   22.9694 C   0  0  0  0  0  0  0  0  0  0  0  0
    7.9958   -3.8940   24.2058 C   0  0  0  0  0  0  0  0  0  0  0  0
  1  2  3  0
  2  3  1  0
  3  4  1  0
  3  5  1  0
  5  6  1  0
  6  7  1  0
  7  8  1  0
  7 15  1  0
  8  9  1  0
  9 10  1  0
 10 11  2  0
 11 12  1  0
 12 13  1  0
 13 14  1  0
 13  9  2  0
 15 16  1  0
 16  3  1  0
M  END
>  <Hit>  (146) 
Mpro-x0387_0

>  <Receptor>  (146) 
Mpro-x0305_0

>  <SCORE>  (146) 
-13.5748

>  <SCORE.norm>  (146) 
-0.84842600000000001

>  <SCORE.heavy>  (146) 
16

>  <OrigSmiles>  (146) 
C#CC1(O)CCN(Cc2ccsc2Cl)CC1

>  <SuCOS_Score>  (146) 
0.50991973269019508

>  <Max_SuCOS_Score>  (146) 
0

>  <Cum_SuCOS_Score>  (146) 
0

>  <TransFSScore_50nM>  (146) 
0.001704

>  <TransFSScore_1uM>  (146) 
0.016459999999999999

>  <TransFSScore_10nM>  (146) 
0.0096780000000000008

>  <TransFSScore_200nM>  (146) 
0.094453999999999996

>  <TransFSScore>  (146) 
0.030573999999999997

>  <FeatureSteinScore>  (146) 
0.62494290785245377

>  <XCos_RefMols>  (146) 
x1392_0,x1249_0

>  <XCos_NumHits>  (146) 
2

>  <XCos_Score1>  (146) 
12.1983

>  <XCos_Score2>  (146) 
0.4135

>  <XCos_Score3>  (146) 
0.0339

$$$$
C#CC1(O)CCN(Cc2ccsc2Cl)CC1
     RDKit          3D

 16 17  0  0  0  0  0  0  0  0999 V2000
    9.4747   -0.7137   26.3463 C   0  0  0  0  0  0  0  0  0  0  0  0
    9.1274   -1.7615   25.8581 C   0  0  0  0  0  0  0  0  0  0  0  0
    8.7027   -3.0670   25.2722 C   0  0  0  0  0  0  0  0  0  0  0  0
    8.2614   -3.6960   26.3982 O   0  0  0  0  0  0  0  0  0  0  0  0
    9.8869   -3.8097   24.6754 C   0  0  0  0  0  0  0  0  0  0  0  0
   10.6026   -2.8544   23.7238 C   0  0  0  0  0  0  0  0  0  0  0  0
    9.6771   -1.9477   22.9951 N   0  0  0  0  0  0  0  0  0  0  0  0
   10.2384   -1.2084   21.8567 C   0  0  0  0  0  0  0  0  0  0  0  0
   11.6283   -0.6958   22.0709 C   0  0  0  0  0  0  0  0  0  0  0  0
   12.7857   -1.2108   21.4452 C   0  0  0  0  0  0  0  0  0  0  0  0
   13.9572   -0.6075   21.8957 C   0  0  0  0  0  0  0  0  0  0  0  0
   13.5463    0.5643   23.0258 S   0  0  0  0  0  0  0  0  0  0  0  0
   11.8964    0.3334   22.9629 C   0  0  0  0  0  0  0  0  0  0  0  0
   10.7357    1.2281   23.9291 Cl  0  0  0  0  0  0  0  0  0  0  0  0
    8.3205   -2.5016   22.7903 C   0  0  0  0  0  0  0  0  0  0  0  0
    7.6492   -2.8402   24.1580 C   0  0  0  0  0  0  0  0  0  0  0  0
  1  2  3  0
  2  3  1  0
  3  4  1  0
  3  5  1  0
  5  6  1  0
  6  7  1  0
  7  8  1  0
  7 15  1  0
  8  9  1  0
  9 10  1  0
 10 11  2  0
 11 12  1  0
 12 13  1  0
 13 14  1  0
 13  9  2  0
 15 16  1  0
 16  3  1  0
M  END
>  <Hit>  (147) 
Mpro-x0387_0

>  <Receptor>  (147) 
Mpro-x1249_0

>  <SCORE>  (147) 
-13.7614

>  <SCORE.norm>  (147) 
-0.86008700000000005

>  <SCORE.heavy>  (147) 
16

>  <OrigSmiles>  (147) 
C#CC1(O)CCN(Cc2ccsc2Cl)CC1

>  <SuCOS_Score>  (147) 
0.38568972733581725

>  <Max_SuCOS_Score>  (147) 
0

>  <Cum_SuCOS_Score>  (147) 
0

>  <TransFSScore_50nM>  (147) 
0.002258

>  <TransFSScore_1uM>  (147) 
0.018719

>  <TransFSScore_10nM>  (147) 
0.0079500000000000005

>  <TransFSScore_200nM>  (147) 
0.041912999999999999

>  <TransFSScore>  (147) 
0.01771

>  <FeatureSteinScore>  (147) 
0.36534266953363326

>  <XCos_RefMols>  (147) 
x1392_0,x0874_0

>  <XCos_NumHits>  (147) 
2

>  <XCos_Score1>  (147) 
10.3959

>  <XCos_Score2>  (147) 
0.1175

>  <XCos_Score3>  (147) 
0.0113

$$$$
C#CC1(O)CCN(Cc2ccsc2Cl)CC1
     RDKit          3D

 16 17  0  0  0  0  0  0  0  0999 V2000
    9.4848   -0.7372   26.3100 C   0  0  0  0  0  0  0  0  0  0  0  0
    9.1240   -1.7726   25.8052 C   0  0  0  0  0  0  0  0  0  0  0  0
    8.6829   -3.0631   25.1987 C   0  0  0  0  0  0  0  0  0  0  0  0
    8.2285   -3.7022   26.3137 O   0  0  0  0  0  0  0  0  0  0  0  0
    9.8587   -3.8138   24.5952 C   0  0  0  0  0  0  0  0  0  0  0  0
   10.5915   -2.8550   23.6604 C   0  0  0  0  0  0  0  0  0  0  0  0
    9.6818   -1.9246   22.9418 N   0  0  0  0  0  0  0  0  0  0  0  0
   10.2579   -1.1768   21.8164 C   0  0  0  0  0  0  0  0  0  0  0  0
   11.6623   -0.7072   22.0341 C   0  0  0  0  0  0  0  0  0  0  0  0
   12.8056   -1.2620   21.4164 C   0  0  0  0  0  0  0  0  0  0  0  0
   13.9936   -0.6935   21.8688 C   0  0  0  0  0  0  0  0  0  0  0  0
   13.6152    0.4969   22.9908 S   0  0  0  0  0  0  0  0  0  0  0  0
   11.9591    0.3179   22.9217 C   0  0  0  0  0  0  0  0  0  0  0  0
   10.8231    1.2542   23.8778 Cl  0  0  0  0  0  0  0  0  0  0  0  0
    8.3182   -2.4560   22.7240 C   0  0  0  0  0  0  0  0  0  0  0  0
    7.6370   -2.8050   24.0842 C   0  0  0  0  0  0  0  0  0  0  0  0
  1  2  3  0
  2  3  1  0
  3  4  1  0
  3  5  1  0
  5  6  1  0
  6  7  1  0
  7  8  1  0
  7 15  1  0
  8  9  1  0
  9 10  1  0
 10 11  2  0
 11 12  1  0
 12 13  1  0
 13 14  1  0
 13  9  2  0
 15 16  1  0
 16  3  1  0
M  END
>  <Hit>  (148) 
Mpro-x0387_0

>  <Receptor>  (148) 
Mpro-x1249_0

>  <SCORE>  (148) 
-13.844900000000001

>  <SCORE.norm>  (148) 
-0.86530399999999996

>  <SCORE.heavy>  (148) 
16

>  <OrigSmiles>  (148) 
C#CC1(O)CCN(Cc2ccsc2Cl)CC1

>  <SuCOS_Score>  (148) 
0.37810386585951705

>  <Max_SuCOS_Score>  (148) 
0

>  <Cum_SuCOS_Score>  (148) 
0

>  <TransFSScore_50nM>  (148) 
0.0024580000000000001

>  <TransFSScore_1uM>  (148) 
0.017714000000000001

>  <TransFSScore_10nM>  (148) 
0.0074710000000000002

>  <TransFSScore_200nM>  (148) 
0.041613999999999998

>  <TransFSScore>  (148) 
0.01731425

>  <FeatureSteinScore>  (148) 
0.34883839425543911

>  <XCos_RefMols>  (148) 
x1392_0,x0874_0

>  <XCos_NumHits>  (148) 
2

>  <XCos_Score1>  (148) 
10.1082

>  <XCos_Score2>  (148) 
0.1142

>  <XCos_Score3>  (148) 
0.0113

$$$$
C#CC1(O)CCN(Cc2ccsc2Cl)CC1
     RDKit          3D

 16 17  0  0  0  0  0  0  0  0999 V2000
    9.5611   -0.6697   26.3114 C   0  0  0  0  0  0  0  0  0  0  0  0
    9.1528   -1.7138   25.8643 C   0  0  0  0  0  0  0  0  0  0  0  0
    8.6666   -3.0085   25.3026 C   0  0  0  0  0  0  0  0  0  0  0  0
    8.2079   -3.5999   26.4420 O   0  0  0  0  0  0  0  0  0  0  0  0
    9.8123   -3.8115   24.7086 C   0  0  0  0  0  0  0  0  0  0  0  0
   10.5608   -2.9034   23.7363 C   0  0  0  0  0  0  0  0  0  0  0  0
    9.6695   -1.9686   23.0004 N   0  0  0  0  0  0  0  0  0  0  0  0
   10.2529   -1.2724   21.8460 C   0  0  0  0  0  0  0  0  0  0  0  0
   11.6261   -0.7238   22.0779 C   0  0  0  0  0  0  0  0  0  0  0  0
   12.8062   -1.2170   21.4774 C   0  0  0  0  0  0  0  0  0  0  0  0
   13.9548   -0.5806   21.9408 C   0  0  0  0  0  0  0  0  0  0  0  0
   13.4965    0.5927   23.0510 S   0  0  0  0  0  0  0  0  0  0  0  0
   11.8540    0.3209   22.9629 C   0  0  0  0  0  0  0  0  0  0  0  0
   10.6557    1.1971   23.8997 Cl  0  0  0  0  0  0  0  0  0  0  0  0
    8.2884   -2.4658   22.8151 C   0  0  0  0  0  0  0  0  0  0  0  0
    7.6146   -2.7533   24.1932 C   0  0  0  0  0  0  0  0  0  0  0  0
  1  2  3  0
  2  3  1  0
  3  4  1  0
  3  5  1  0
  5  6  1  0
  6  7  1  0
  7  8  1  0
  7 15  1  0
  8  9  1  0
  9 10  1  0
 10 11  2  0
 11 12  1  0
 12 13  1  0
 13 14  1  0
 13  9  2  0
 15 16  1  0
 16  3  1  0
M  END
>  <Hit>  (149) 
Mpro-x0387_0

>  <Receptor>  (149) 
Mpro-x1249_0

>  <SCORE>  (149) 
-13.8833

>  <SCORE.norm>  (149) 
-0.86770899999999995

>  <SCORE.heavy>  (149) 
16

>  <OrigSmiles>  (149) 
C#CC1(O)CCN(Cc2ccsc2Cl)CC1

>  <SuCOS_Score>  (149) 
0.38537998644323457

>  <Max_SuCOS_Score>  (149) 
0

>  <Cum_SuCOS_Score>  (149) 
0

>  <TransFSScore_50nM>  (149) 
0.0023349999999999998

>  <TransFSScore_1uM>  (149) 
0.018592000000000001

>  <TransFSScore_10nM>  (149) 
0.0085800000000000008

>  <TransFSScore_200nM>  (149) 
0.041597000000000002

>  <TransFSScore>  (149) 
0.017776

>  <FeatureSteinScore>  (149) 
0.37029898005655265

>  <XCos_RefMols>  (149) 
x1392_0,x0874_0

>  <XCos_NumHits>  (149) 
2

>  <XCos_Score1>  (149) 
10.5939

>  <XCos_Score2>  (149) 
0.1197

>  <XCos_Score3>  (149) 
0.0113

$$$$
C#CC1(O)CCN(Cc2ccsc2Cl)CC1
     RDKit          3D

 16 17  0  0  0  0  0  0  0  0999 V2000
    9.3737   -0.7513   26.2575 C   0  0  0  0  0  0  0  0  0  0  0  0
    9.0719   -1.8161   25.7758 C   0  0  0  0  0  0  0  0  0  0  0  0
    8.6973   -3.1410   25.1993 C   0  0  0  0  0  0  0  0  0  0  0  0
    8.2322   -3.7607   26.3209 O   0  0  0  0  0  0  0  0  0  0  0  0
    9.9179   -3.8659   24.6564 C   0  0  0  0  0  0  0  0  0  0  0  0
   10.6438   -2.9106   23.7126 C   0  0  0  0  0  0  0  0  0  0  0  0
    9.7235   -2.0384   22.9369 N   0  0  0  0  0  0  0  0  0  0  0  0
   10.3065   -1.3058   21.8051 C   0  0  0  0  0  0  0  0  0  0  0  0
   11.6685   -0.7412   22.0634 C   0  0  0  0  0  0  0  0  0  0  0  0
   12.8684   -1.2362   21.5053 C   0  0  0  0  0  0  0  0  0  0  0  0
   13.9989   -0.5811   21.9872 C   0  0  0  0  0  0  0  0  0  0  0  0
   13.5011    0.6098   23.0609 S   0  0  0  0  0  0  0  0  0  0  0  0
   11.8638    0.3226   22.9334 C   0  0  0  0  0  0  0  0  0  0  0  0
   10.6333    1.2070   23.8195 Cl  0  0  0  0  0  0  0  0  0  0  0  0
    8.3877   -2.6273   22.6962 C   0  0  0  0  0  0  0  0  0  0  0  0
    7.6778   -2.9580   24.0462 C   0  0  0  0  0  0  0  0  0  0  0  0
  1  2  3  0
  2  3  1  0
  3  4  1  0
  3  5  1  0
  5  6  1  0
  6  7  1  0
  7  8  1  0
  7 15  1  0
  8  9  1  0
  9 10  1  0
 10 11  2  0
 11 12  1  0
 12 13  1  0
 13 14  1  0
 13  9  2  0
 15 16  1  0
 16  3  1  0
M  END
>  <Hit>  (150) 
Mpro-x0387_0

>  <Receptor>  (150) 
Mpro-x1249_0

>  <SCORE>  (150) 
-13.912699999999999

>  <SCORE.norm>  (150) 
-0.86954399999999998

>  <SCORE.heavy>  (150) 
16

>  <OrigSmiles>  (150) 
C#CC1(O)CCN(Cc2ccsc2Cl)CC1

>  <SuCOS_Score>  (150) 
0.38736915027428387

>  <Max_SuCOS_Score>  (150) 
0

>  <Cum_SuCOS_Score>  (150) 
0

>  <TransFSScore_50nM>  (150) 
0.0021050000000000001

>  <TransFSScore_1uM>  (150) 
0.020882000000000001

>  <TransFSScore_10nM>  (150) 
0.0089789999999999991

>  <TransFSScore_200nM>  (150) 
0.039283999999999999

>  <TransFSScore>  (150) 
0.017812500000000002

>  <FeatureSteinScore>  (150) 
0.35972492774163167

>  <XCos_RefMols>  (150) 
x1392_0,x0874_0

>  <XCos_NumHits>  (150) 
2

>  <XCos_Score1>  (150) 
10.2526

>  <XCos_Score2>  (150) 
0.1738

>  <XCos_Score3>  (150) 
0.0169

$$$$
C#CC1(O)CCN(Cc2ccsc2Cl)CC1
     RDKit          3D

 16 17  0  0  0  0  0  0  0  0999 V2000
    9.3875   -0.7138   26.2809 C   0  0  0  0  0  0  0  0  0  0  0  0
    9.0838   -1.7818   25.8075 C   0  0  0  0  0  0  0  0  0  0  0  0
    8.6884   -3.0962   25.2209 C   0  0  0  0  0  0  0  0  0  0  0  0
    8.2263   -3.7220   26.3402 O   0  0  0  0  0  0  0  0  0  0  0  0
    9.8954   -3.8296   24.6593 C   0  0  0  0  0  0  0  0  0  0  0  0
   10.6239   -2.8731   23.7187 C   0  0  0  0  0  0  0  0  0  0  0  0
    9.7068   -1.9822   22.9605 N   0  0  0  0  0  0  0  0  0  0  0  0
   10.2881   -1.2447   21.8310 C   0  0  0  0  0  0  0  0  0  0  0  0
   11.6567   -0.6942   22.0844 C   0  0  0  0  0  0  0  0  0  0  0  0
   12.8457   -1.1801   21.4957 C   0  0  0  0  0  0  0  0  0  0  0  0
   13.9866   -0.5441   21.9783 C   0  0  0  0  0  0  0  0  0  0  0  0
   13.5110    0.6201   23.0907 S   0  0  0  0  0  0  0  0  0  0  0  0
   11.8705    0.3448   22.9796 C   0  0  0  0  0  0  0  0  0  0  0  0
   10.6579    1.2113   23.9070 Cl  0  0  0  0  0  0  0  0  0  0  0  0
    8.3620   -2.5529   22.7262 C   0  0  0  0  0  0  0  0  0  0  0  0
    7.6606   -2.8893   24.0792 C   0  0  0  0  0  0  0  0  0  0  0  0
  1  2  3  0
  2  3  1  0
  3  4  1  0
  3  5  1  0
  5  6  1  0
  6  7  1  0
  7  8  1  0
  7 15  1  0
  8  9  1  0
  9 10  1  0
 10 11  2  0
 11 12  1  0
 12 13  1  0
 13 14  1  0
 13  9  2  0
 15 16  1  0
 16  3  1  0
M  END
>  <Hit>  (151) 
Mpro-x0387_0

>  <Receptor>  (151) 
Mpro-x1249_0

>  <SCORE>  (151) 
-13.923400000000001

>  <SCORE.norm>  (151) 
-0.87021499999999996

>  <SCORE.heavy>  (151) 
16

>  <OrigSmiles>  (151) 
C#CC1(O)CCN(Cc2ccsc2Cl)CC1

>  <SuCOS_Score>  (151) 
0.38502770747185322

>  <Max_SuCOS_Score>  (151) 
0

>  <Cum_SuCOS_Score>  (151) 
0

>  <TransFSScore_50nM>  (151) 
0.0022769999999999999

>  <TransFSScore_1uM>  (151) 
0.019427

>  <TransFSScore_10nM>  (151) 
0.0083599999999999994

>  <TransFSScore_200nM>  (151) 
0.039307000000000002

>  <TransFSScore>  (151) 
0.017342750000000001

>  <FeatureSteinScore>  (151) 
0.36552551639666908

>  <XCos_RefMols>  (151) 
x1392_0,x0874_0

>  <XCos_NumHits>  (151) 
2

>  <XCos_Score1>  (151) 
10.3445

>  <XCos_Score2>  (151) 
0.1753

>  <XCos_Score3>  (151) 
0.0169

$$$$
C#CC1(O)CCN(Cc2cn[nH]c2)CC1
     RDKit          3D

 15 16  0  0  0  0  0  0  0  0999 V2000
    8.4604   -2.9506   27.6234 C   0  0  0  0  0  0  0  0  0  0  0  0
    8.5754   -4.0360   27.1079 C   0  0  0  0  0  0  0  0  0  0  0  0
    8.7125   -5.3655   26.4536 C   0  0  0  0  0  0  0  0  0  0  0  0
    8.4131   -6.1644   27.5149 O   0  0  0  0  0  0  0  0  0  0  0  0
   10.1332   -5.5803   25.9545 C   0  0  0  0  0  0  0  0  0  0  0  0
   10.5126   -4.3698   25.1061 C   0  0  0  0  0  0  0  0  0  0  0  0
    9.3787   -3.8090   24.3241 N   0  0  0  0  0  0  0  0  0  0  0  0
    9.7351   -2.9560   23.1862 C   0  0  0  0  0  0  0  0  0  0  0  0
   10.5344   -1.7401   23.5351 C   0  0  0  0  0  0  0  0  0  0  0  0
   11.6824   -1.2902   22.9129 C   0  0  0  0  0  0  0  0  0  0  0  0
   12.0934   -0.1572   23.5153 N   0  0  0  0  0  0  0  0  0  0  0  0
   11.2422    0.1149   24.4925 N   0  0  0  0  0  0  0  0  0  0  0  0
   10.2818   -0.8248   24.5349 C   0  0  0  0  0  0  0  0  0  0  0  0
    8.3316   -4.8013   23.9878 C   0  0  0  0  0  0  0  0  0  0  0  0
    7.7338   -5.4568   25.2653 C   0  0  0  0  0  0  0  0  0  0  0  0
  1  2  3  0
  2  3  1  0
  3  4  1  0
  3  5  1  0
  5  6  1  0
  6  7  1  0
  7  8  1  0
  7 14  1  0
  8  9  1  0
  9 10  1  0
 10 11  2  0
 11 12  1  0
 12 13  1  0
 13  9  2  0
 14 15  1  0
 15  3  1  0
M  END
>  <Hit>  (152) 
Mpro-x0387_0

>  <Receptor>  (152) 
Mpro-x0305_0

>  <SCORE>  (152) 
-11.016299999999999

>  <SCORE.norm>  (152) 
-0.73442300000000005

>  <SCORE.heavy>  (152) 
15

>  <OrigSmiles>  (152) 
C#CC1(O)CCN(Cc2cn[nH]c2)CC1

>  <SuCOS_Score>  (152) 
0.47358224571774438

>  <Max_SuCOS_Score>  (152) 
0

>  <Cum_SuCOS_Score>  (152) 
0

>  <TransFSScore_50nM>  (152) 
0.002261

>  <TransFSScore_1uM>  (152) 
0.114727

>  <TransFSScore_10nM>  (152) 
0.048901

>  <TransFSScore_200nM>  (152) 
0.057960999999999999

>  <TransFSScore>  (152) 
0.055962499999999998

>  <FeatureSteinScore>  (152) 
0.30234624375088481

>  <XCos_RefMols>  (152) 
x1392_0,x0770_0

>  <XCos_NumHits>  (152) 
2

>  <XCos_Score1>  (152) 
10.0358

>  <XCos_Score2>  (152) 
0.1134

>  <XCos_Score3>  (152) 
0.0113

$$$$
C#CC1(O)CCN(Cc2cn[nH]c2)CC1
     RDKit          3D

 15 16  0  0  0  0  0  0  0  0999 V2000
    8.4717   -2.9688   27.5775 C   0  0  0  0  0  0  0  0  0  0  0  0
    8.5983   -4.0415   27.0387 C   0  0  0  0  0  0  0  0  0  0  0  0
    8.7346   -5.3625   26.3672 C   0  0  0  0  0  0  0  0  0  0  0  0
    8.4666   -6.1757   27.4260 O   0  0  0  0  0  0  0  0  0  0  0  0
   10.1461   -5.5572   25.8350 C   0  0  0  0  0  0  0  0  0  0  0  0
   10.4946   -4.3338   24.9917 C   0  0  0  0  0  0  0  0  0  0  0  0
    9.3382   -3.7765   24.2408 N   0  0  0  0  0  0  0  0  0  0  0  0
    9.6609   -2.9078   23.1047 C   0  0  0  0  0  0  0  0  0  0  0  0
   10.4799   -1.7025   23.4448 C   0  0  0  0  0  0  0  0  0  0  0  0
   11.6457   -1.2866   22.8322 C   0  0  0  0  0  0  0  0  0  0  0  0
   12.0710   -0.1520   23.4213 N   0  0  0  0  0  0  0  0  0  0  0  0
   11.2116    0.1540   24.3811 N   0  0  0  0  0  0  0  0  0  0  0  0
   10.2316   -0.7653   24.4253 C   0  0  0  0  0  0  0  0  0  0  0  0
    8.2941   -4.7760   23.9165 C   0  0  0  0  0  0  0  0  0  0  0  0
    7.7311   -5.4513   25.1995 C   0  0  0  0  0  0  0  0  0  0  0  0
  1  2  3  0
  2  3  1  0
  3  4  1  0
  3  5  1  0
  5  6  1  0
  6  7  1  0
  7  8  1  0
  7 14  1  0
  8  9  1  0
  9 10  1  0
 10 11  2  0
 11 12  1  0
 12 13  1  0
 13  9  2  0
 14 15  1  0
 15  3  1  0
M  END
>  <Hit>  (153) 
Mpro-x0387_0

>  <Receptor>  (153) 
Mpro-x0305_0

>  <SCORE>  (153) 
-11.0244

>  <SCORE.norm>  (153) 
-0.73496099999999998

>  <SCORE.heavy>  (153) 
15

>  <OrigSmiles>  (153) 
C#CC1(O)CCN(Cc2cn[nH]c2)CC1

>  <SuCOS_Score>  (153) 
0.4693523194192798

>  <Max_SuCOS_Score>  (153) 
0

>  <Cum_SuCOS_Score>  (153) 
0

>  <TransFSScore_50nM>  (153) 
0.0021580000000000002

>  <TransFSScore_1uM>  (153) 
0.103294

>  <TransFSScore_10nM>  (153) 
0.046470999999999998

>  <TransFSScore_200nM>  (153) 
0.051520999999999997

>  <TransFSScore>  (153) 
0.05086099999999999

>  <FeatureSteinScore>  (153) 
0.31575511424709213

>  <XCos_RefMols>  (153) 
x1392_0,x0692_0

>  <XCos_NumHits>  (153) 
2

>  <XCos_Score1>  (153) 
10.2216

>  <XCos_Score2>  (153) 
0.1155

>  <XCos_Score3>  (153) 
0.0113

$$$$
C#CC1(O)CCN(Cc2cn[nH]c2)CC1
     RDKit          3D

 15 16  0  0  0  0  0  0  0  0999 V2000
    9.2201   -1.1357   26.5581 C   0  0  0  0  0  0  0  0  0  0  0  0
    9.0045   -2.1928   26.0167 C   0  0  0  0  0  0  0  0  0  0  0  0
    8.7186   -3.4905   25.3468 C   0  0  0  0  0  0  0  0  0  0  0  0
    8.0840   -4.1296   26.3681 O   0  0  0  0  0  0  0  0  0  0  0  0
   10.0086   -4.1888   24.9444 C   0  0  0  0  0  0  0  0  0  0  0  0
   10.8456   -3.1905   24.1494 C   0  0  0  0  0  0  0  0  0  0  0  0
   10.0373   -2.2745   23.3014 N   0  0  0  0  0  0  0  0  0  0  0  0
   10.7496   -1.6048   22.2088 C   0  0  0  0  0  0  0  0  0  0  0  0
   11.9071   -0.7581   22.6359 C   0  0  0  0  0  0  0  0  0  0  0  0
   11.9303    0.1663   23.6617 C   0  0  0  0  0  0  0  0  0  0  0  0
   13.1605    0.7111   23.7344 N   0  0  0  0  0  0  0  0  0  0  0  0
   13.9054    0.1595   22.7887 N   0  0  0  0  0  0  0  0  0  0  0  0
   13.1779   -0.7378   22.1011 C   0  0  0  0  0  0  0  0  0  0  0  0
    8.7381   -2.8423   22.8723 C   0  0  0  0  0  0  0  0  0  0  0  0
    7.8585   -3.2420   24.0912 C   0  0  0  0  0  0  0  0  0  0  0  0
  1  2  3  0
  2  3  1  0
  3  4  1  0
  3  5  1  0
  5  6  1  0
  6  7  1  0
  7  8  1  0
  7 14  1  0
  8  9  1  0
  9 10  1  0
 10 11  2  0
 11 12  1  0
 12 13  1  0
 13  9  2  0
 14 15  1  0
 15  3  1  0
M  END
>  <Hit>  (154) 
Mpro-x0387_0

>  <Receptor>  (154) 
Mpro-x0305_0

>  <SCORE>  (154) 
-11.041399999999999

>  <SCORE.norm>  (154) 
-0.73609500000000005

>  <SCORE.heavy>  (154) 
15

>  <OrigSmiles>  (154) 
C#CC1(O)CCN(Cc2cn[nH]c2)CC1

>  <SuCOS_Score>  (154) 
0.42515225634876175

>  <Max_SuCOS_Score>  (154) 
0

>  <Cum_SuCOS_Score>  (154) 
0

>  <TransFSScore_50nM>  (154) 
0.0098580000000000004

>  <TransFSScore_1uM>  (154) 
0.073377999999999999

>  <TransFSScore_10nM>  (154) 
0.032885999999999999

>  <TransFSScore_200nM>  (154) 
0.089222999999999997

>  <TransFSScore>  (154) 
0.05133625

>  <FeatureSteinScore>  (154) 
0.35121148053262441

>  <XCos_RefMols>  (154) 
x0967_0,x0305_0

>  <XCos_NumHits>  (154) 
2

>  <XCos_Score1>  (154) 
9.6760

>  <XCos_Score2>  (154) 
0.1640

>  <XCos_Score3>  (154) 
0.0169

$$$$
C#CC1(O)CCN(Cc2cn[nH]c2)CC1
     RDKit          3D

 15 16  0  0  0  0  0  0  0  0999 V2000
    9.1630   -1.2205   26.5860 C   0  0  0  0  0  0  0  0  0  0  0  0
    8.9590   -2.2705   26.0267 C   0  0  0  0  0  0  0  0  0  0  0  0
    8.6868   -3.5623   25.3400 C   0  0  0  0  0  0  0  0  0  0  0  0
    8.0537   -4.2192   26.3509 O   0  0  0  0  0  0  0  0  0  0  0  0
    9.9842   -4.2447   24.9342 C   0  0  0  0  0  0  0  0  0  0  0  0
   10.8157   -3.2297   24.1548 C   0  0  0  0  0  0  0  0  0  0  0  0
   10.0029   -2.3103   23.3148 N   0  0  0  0  0  0  0  0  0  0  0  0
   10.7137   -1.6214   22.2332 C   0  0  0  0  0  0  0  0  0  0  0  0
   11.8780   -0.7904   22.6725 C   0  0  0  0  0  0  0  0  0  0  0  0
   11.9271    0.0729   23.7493 C   0  0  0  0  0  0  0  0  0  0  0  0
   13.1550    0.6238   23.8152 N   0  0  0  0  0  0  0  0  0  0  0  0
   13.8735    0.1349   22.8161 N   0  0  0  0  0  0  0  0  0  0  0  0
   13.1310   -0.7275   22.1003 C   0  0  0  0  0  0  0  0  0  0  0  0
    8.7103   -2.8838   22.8737 C   0  0  0  0  0  0  0  0  0  0  0  0
    7.8295   -3.3058   24.0840 C   0  0  0  0  0  0  0  0  0  0  0  0
  1  2  3  0
  2  3  1  0
  3  4  1  0
  3  5  1  0
  5  6  1  0
  6  7  1  0
  7  8  1  0
  7 14  1  0
  8  9  1  0
  9 10  1  0
 10 11  2  0
 11 12  1  0
 12 13  1  0
 13  9  2  0
 14 15  1  0
 15  3  1  0
M  END
>  <Hit>  (155) 
Mpro-x0387_0

>  <Receptor>  (155) 
Mpro-x0305_0

>  <SCORE>  (155) 
-11.149800000000001

>  <SCORE.norm>  (155) 
-0.74332200000000004

>  <SCORE.heavy>  (155) 
15

>  <OrigSmiles>  (155) 
C#CC1(O)CCN(Cc2cn[nH]c2)CC1

>  <SuCOS_Score>  (155) 
0.43688821186199034

>  <Max_SuCOS_Score>  (155) 
0

>  <Cum_SuCOS_Score>  (155) 
0

>  <TransFSScore_50nM>  (155) 
0.0095460000000000007

>  <TransFSScore_1uM>  (155) 
0.073372999999999994

>  <TransFSScore_10nM>  (155) 
0.037255000000000003

>  <TransFSScore_200nM>  (155) 
0.085808999999999996

>  <TransFSScore>  (155) 
0.05149575

>  <FeatureSteinScore>  (155) 
0.37898010359718937

>  <XCos_RefMols>  (155) 
x0967_0,x0305_0

>  <XCos_NumHits>  (155) 
2

>  <XCos_Score1>  (155) 
9.7792

>  <XCos_Score2>  (155) 
0.2210

>  <XCos_Score3>  (155) 
0.0226

$$$$
C#CC1(O)CCN(Cc2cn[nH]c2)CC1
     RDKit          3D

 15 16  0  0  0  0  0  0  0  0999 V2000
    9.3249   -3.0495   28.1738 C   0  0  0  0  0  0  0  0  0  0  0  0
    9.1956   -4.0234   27.4726 C   0  0  0  0  0  0  0  0  0  0  0  0
    9.0503   -5.2345   26.6201 C   0  0  0  0  0  0  0  0  0  0  0  0
    8.6712   -6.1298   27.5734 O   0  0  0  0  0  0  0  0  0  0  0  0
   10.3772   -5.6068   25.9763 C   0  0  0  0  0  0  0  0  0  0  0  0
   10.9222   -4.3592   25.2867 C   0  0  0  0  0  0  0  0  0  0  0  0
    9.8670   -3.4943   24.6949 N   0  0  0  0  0  0  0  0  0  0  0  0
   10.3075   -2.5438   23.6693 C   0  0  0  0  0  0  0  0  0  0  0  0
   11.1876   -1.4409   24.1676 C   0  0  0  0  0  0  0  0  0  0  0  0
   11.2189   -0.9107   25.4424 C   0  0  0  0  0  0  0  0  0  0  0  0
   12.1541    0.0581   25.4924 N   0  0  0  0  0  0  0  0  0  0  0  0
   12.7066    0.1515   24.2927 N   0  0  0  0  0  0  0  0  0  0  0  0
   12.1449   -0.7435   23.4615 C   0  0  0  0  0  0  0  0  0  0  0  0
    8.6389   -4.2254   24.3057 C   0  0  0  0  0  0  0  0  0  0  0  0
    8.0053   -4.9649   25.5185 C   0  0  0  0  0  0  0  0  0  0  0  0
  1  2  3  0
  2  3  1  0
  3  4  1  0
  3  5  1  0
  5  6  1  0
  6  7  1  0
  7  8  1  0
  7 14  1  0
  8  9  1  0
  9 10  1  0
 10 11  2  0
 11 12  1  0
 12 13  1  0
 13  9  2  0
 14 15  1  0
 15  3  1  0
M  END
>  <Hit>  (156) 
Mpro-x0387_0

>  <Receptor>  (156) 
Mpro-x0387_0

>  <SCORE>  (156) 
-11.1898

>  <SCORE.norm>  (156) 
-0.74598500000000001

>  <SCORE.heavy>  (156) 
15

>  <OrigSmiles>  (156) 
C#CC1(O)CCN(Cc2cn[nH]c2)CC1

>  <SuCOS_Score>  (156) 
0.52907906377340619

>  <Max_SuCOS_Score>  (156) 
0

>  <Cum_SuCOS_Score>  (156) 
0

>  <TransFSScore_50nM>  (156) 
0.0076540000000000002

>  <TransFSScore_1uM>  (156) 
0.092789999999999997

>  <TransFSScore_10nM>  (156) 
0.034327999999999997

>  <TransFSScore_200nM>  (156) 
0.081896999999999998

>  <TransFSScore>  (156) 
0.05416725

>  <FeatureSteinScore>  (156) 
0.20795462829549344

>  <XCos_RefMols>  (156) 
x0770_0,x1386_0

>  <XCos_NumHits>  (156) 
2

>  <XCos_Score1>  (156) 
8.3054

>  <XCos_Score2>  (156) 
0.0469

>  <XCos_Score3>  (156) 
0.0056

$$$$
C#CC1(O)CCN(Cc2cn[nH]c2)CC1
     RDKit          3D

 15 16  0  0  0  0  0  0  0  0999 V2000
    8.9946   -2.9523   27.7393 C   0  0  0  0  0  0  0  0  0  0  0  0
    9.0133   -4.0203   27.1771 C   0  0  0  0  0  0  0  0  0  0  0  0
    9.0416   -5.3272   26.4659 C   0  0  0  0  0  0  0  0  0  0  0  0
    8.6940   -6.1458   27.4971 O   0  0  0  0  0  0  0  0  0  0  0  0
   10.4363   -5.6272   25.9382 C   0  0  0  0  0  0  0  0  0  0  0  0
   10.8974   -4.4137   25.1357 C   0  0  0  0  0  0  0  0  0  0  0  0
    9.8010   -3.7359   24.3941 N   0  0  0  0  0  0  0  0  0  0  0  0
   10.2086   -2.8644   23.2878 C   0  0  0  0  0  0  0  0  0  0  0  0
   11.0776   -1.7112   23.6804 C   0  0  0  0  0  0  0  0  0  0  0  0
   12.2363   -1.2904   23.0577 C   0  0  0  0  0  0  0  0  0  0  0  0
   12.7178   -0.2126   23.7073 N   0  0  0  0  0  0  0  0  0  0  0  0
   11.9003    0.0530   24.7146 N   0  0  0  0  0  0  0  0  0  0  0  0
   10.8923   -0.8364   24.7300 C   0  0  0  0  0  0  0  0  0  0  0  0
    8.6777   -4.6309   24.0315 C   0  0  0  0  0  0  0  0  0  0  0  0
    8.0459   -5.2933   25.2889 C   0  0  0  0  0  0  0  0  0  0  0  0
  1  2  3  0
  2  3  1  0
  3  4  1  0
  3  5  1  0
  5  6  1  0
  6  7  1  0
  7  8  1  0
  7 14  1  0
  8  9  1  0
  9 10  1  0
 10 11  2  0
 11 12  1  0
 12 13  1  0
 13  9  2  0
 14 15  1  0
 15  3  1  0
M  END
>  <Hit>  (157) 
Mpro-x0387_0

>  <Receptor>  (157) 
Mpro-x0387_0

>  <SCORE>  (157) 
-11.190799999999999

>  <SCORE.norm>  (157) 
-0.74605100000000002

>  <SCORE.heavy>  (157) 
15

>  <OrigSmiles>  (157) 
C#CC1(O)CCN(Cc2cn[nH]c2)CC1

>  <SuCOS_Score>  (157) 
0.53847852353251502

>  <Max_SuCOS_Score>  (157) 
0

>  <Cum_SuCOS_Score>  (157) 
0

>  <TransFSScore_50nM>  (157) 
0.002826

>  <TransFSScore_1uM>  (157) 
0.13971800000000001

>  <TransFSScore_10nM>  (157) 
0.016173

>  <TransFSScore_200nM>  (157) 
0.026037000000000001

>  <TransFSScore>  (157) 
0.0461885

>  <FeatureSteinScore>  (157) 
0.31301387099714406

>  <XCos_RefMols>  (157) 
x1386_0,x1392_0

>  <XCos_NumHits>  (157) 
2

>  <XCos_Score1>  (157) 
9.1401

>  <XCos_Score2>  (157) 
0.2066

>  <XCos_Score3>  (157) 
0.0226

$$$$
C#CC1(O)CCN(Cc2cn[nH]c2)CC1
     RDKit          3D

 15 16  0  0  0  0  0  0  0  0999 V2000
    8.9564   -2.9557   27.7019 C   0  0  0  0  0  0  0  0  0  0  0  0
    8.9966   -4.0125   27.1201 C   0  0  0  0  0  0  0  0  0  0  0  0
    9.0533   -5.3247   26.4204 C   0  0  0  0  0  0  0  0  0  0  0  0
    8.7048   -6.1398   27.4539 O   0  0  0  0  0  0  0  0  0  0  0  0
   10.4589   -5.6082   25.9127 C   0  0  0  0  0  0  0  0  0  0  0  0
   10.9121   -4.3946   25.1060 C   0  0  0  0  0  0  0  0  0  0  0  0
    9.8152   -3.7393   24.3449 N   0  0  0  0  0  0  0  0  0  0  0  0
   10.2239   -2.8710   23.2366 C   0  0  0  0  0  0  0  0  0  0  0  0
   11.0909   -1.7155   23.6270 C   0  0  0  0  0  0  0  0  0  0  0  0
   12.2228   -1.2652   22.9764 C   0  0  0  0  0  0  0  0  0  0  0  0
   12.7120   -0.1962   23.6347 N   0  0  0  0  0  0  0  0  0  0  0  0
   11.9251    0.0356   24.6742 N   0  0  0  0  0  0  0  0  0  0  0  0
   10.9295   -0.8674   24.7021 C   0  0  0  0  0  0  0  0  0  0  0  0
    8.7100   -4.6539   23.9758 C   0  0  0  0  0  0  0  0  0  0  0  0
    8.0722   -5.3153   25.2307 C   0  0  0  0  0  0  0  0  0  0  0  0
  1  2  3  0
  2  3  1  0
  3  4  1  0
  3  5  1  0
  5  6  1  0
  6  7  1  0
  7  8  1  0
  7 14  1  0
  8  9  1  0
  9 10  1  0
 10 11  2  0
 11 12  1  0
 12 13  1  0
 13  9  2  0
 14 15  1  0
 15  3  1  0
M  END
>  <Hit>  (158) 
Mpro-x0387_0

>  <Receptor>  (158) 
Mpro-x0387_0

>  <SCORE>  (158) 
-11.207100000000001

>  <SCORE.norm>  (158) 
-0.747139

>  <SCORE.heavy>  (158) 
15

>  <OrigSmiles>  (158) 
C#CC1(O)CCN(Cc2cn[nH]c2)CC1

>  <SuCOS_Score>  (158) 
0.54132603801057666

>  <Max_SuCOS_Score>  (158) 
0

>  <Cum_SuCOS_Score>  (158) 
0

>  <TransFSScore_50nM>  (158) 
0.0026949999999999999

>  <TransFSScore_1uM>  (158) 
0.13988700000000001

>  <TransFSScore_10nM>  (158) 
0.015413

>  <TransFSScore_200nM>  (158) 
0.029076000000000001

>  <TransFSScore>  (158) 
0.046767750000000004

>  <FeatureSteinScore>  (158) 
0.3172803523046307

>  <XCos_RefMols>  (158) 
x1386_0,x1392_0

>  <XCos_NumHits>  (158) 
2

>  <XCos_Score1>  (158) 
9.1590

>  <XCos_Score2>  (158) 
0.2070

>  <XCos_Score3>  (158) 
0.0226

$$$$
C#CC1(O)CCN(Cc2cn[nH]c2)CC1
     RDKit          3D

 15 16  0  0  0  0  0  0  0  0999 V2000
    9.0940   -1.1557   26.4131 C   0  0  0  0  0  0  0  0  0  0  0  0
    8.9515   -2.2310   25.8834 C   0  0  0  0  0  0  0  0  0  0  0  0
    8.7605   -3.5485   25.2184 C   0  0  0  0  0  0  0  0  0  0  0  0
    8.1209   -4.2102   26.2220 O   0  0  0  0  0  0  0  0  0  0  0  0
   10.1001   -4.1814   24.8742 C   0  0  0  0  0  0  0  0  0  0  0  0
   10.9139   -3.1481   24.1002 C   0  0  0  0  0  0  0  0  0  0  0  0
   10.0923   -2.2845   23.2109 N   0  0  0  0  0  0  0  0  0  0  0  0
   10.8105   -1.5889   22.1387 C   0  0  0  0  0  0  0  0  0  0  0  0
   11.9347   -0.7139   22.5967 C   0  0  0  0  0  0  0  0  0  0  0  0
   11.9111    0.2009   23.6311 C   0  0  0  0  0  0  0  0  0  0  0  0
   13.1236    0.7795   23.7337 N   0  0  0  0  0  0  0  0  0  0  0  0
   13.9027    0.2582   22.7984 N   0  0  0  0  0  0  0  0  0  0  0  0
   13.2149   -0.6527   22.0881 C   0  0  0  0  0  0  0  0  0  0  0  0
    8.8425   -2.9244   22.7390 C   0  0  0  0  0  0  0  0  0  0  0  0
    7.9382   -3.3582   23.9278 C   0  0  0  0  0  0  0  0  0  0  0  0
  1  2  3  0
  2  3  1  0
  3  4  1  0
  3  5  1  0
  5  6  1  0
  6  7  1  0
  7  8  1  0
  7 14  1  0
  8  9  1  0
  9 10  1  0
 10 11  2  0
 11 12  1  0
 12 13  1  0
 13  9  2  0
 14 15  1  0
 15  3  1  0
M  END
>  <Hit>  (159) 
Mpro-x0387_0

>  <Receptor>  (159) 
Mpro-x0305_0

>  <SCORE>  (159) 
-11.485900000000001

>  <SCORE.norm>  (159) 
-0.76572300000000004

>  <SCORE.heavy>  (159) 
15

>  <OrigSmiles>  (159) 
C#CC1(O)CCN(Cc2cn[nH]c2)CC1

>  <SuCOS_Score>  (159) 
0.41362926809220141

>  <Max_SuCOS_Score>  (159) 
0

>  <Cum_SuCOS_Score>  (159) 
0

>  <TransFSScore_50nM>  (159) 
0.011297

>  <TransFSScore_1uM>  (159) 
0.080577999999999997

>  <TransFSScore_10nM>  (159) 
0.029510999999999999

>  <TransFSScore_200nM>  (159) 
0.088801000000000005

>  <TransFSScore>  (159) 
0.052546750000000003

>  <FeatureSteinScore>  (159) 
0.34432089662865728

>  <XCos_RefMols>  (159) 
x0967_0,x0305_0

>  <XCos_NumHits>  (159) 
2

>  <XCos_Score1>  (159) 
9.6832

>  <XCos_Score2>  (159) 
0.1641

>  <XCos_Score3>  (159) 
0.0169

$$$$
C#CC1(O)CCN(Cc2cn[nH]c2)CC1
     RDKit          3D

 15 16  0  0  0  0  0  0  0  0999 V2000
    9.2447   -4.5613   28.4885 C   0  0  0  0  0  0  0  0  0  0  0  0
    9.2747   -5.0193   27.3721 C   0  0  0  0  0  0  0  0  0  0  0  0
    9.2985   -5.5994   26.0019 C   0  0  0  0  0  0  0  0  0  0  0  0
    9.1432   -6.9148   26.3177 O   0  0  0  0  0  0  0  0  0  0  0  0
   10.6302   -5.3249   25.3200 C   0  0  0  0  0  0  0  0  0  0  0  0
   10.9009   -3.8264   25.4218 C   0  0  0  0  0  0  0  0  0  0  0  0
    9.6746   -2.9900   25.3305 N   0  0  0  0  0  0  0  0  0  0  0  0
    9.8762   -1.5794   24.9855 C   0  0  0  0  0  0  0  0  0  0  0  0
   10.5688   -1.3418   23.6805 C   0  0  0  0  0  0  0  0  0  0  0  0
   11.7709   -0.6919   23.4808 C   0  0  0  0  0  0  0  0  0  0  0  0
   12.0585   -0.6947   22.1644 N   0  0  0  0  0  0  0  0  0  0  0  0
   11.0770   -1.3231   21.5357 N   0  0  0  0  0  0  0  0  0  0  0  0
   10.1539   -1.7303   22.4242 C   0  0  0  0  0  0  0  0  0  0  0  0
    8.5766   -3.6154   24.5576 C   0  0  0  0  0  0  0  0  0  0  0  0
    8.1588   -4.9853   25.1641 C   0  0  0  0  0  0  0  0  0  0  0  0
  1  2  3  0
  2  3  1  0
  3  4  1  0
  3  5  1  0
  5  6  1  0
  6  7  1  0
  7  8  1  0
  7 14  1  0
  8  9  1  0
  9 10  1  0
 10 11  2  0
 11 12  1  0
 12 13  1  0
 13  9  2  0
 14 15  1  0
 15  3  1  0
M  END
>  <Hit>  (160) 
Mpro-x0387_0

>  <Receptor>  (160) 
Mpro-x0387_0

>  <SCORE>  (160) 
-13.0532

>  <SCORE.norm>  (160) 
-0.87021599999999999

>  <SCORE.heavy>  (160) 
15

>  <OrigSmiles>  (160) 
C#CC1(O)CCN(Cc2cn[nH]c2)CC1

>  <SuCOS_Score>  (160) 
0.51768133906081659

>  <Max_SuCOS_Score>  (160) 
0

>  <Cum_SuCOS_Score>  (160) 
0

>  <TransFSScore_50nM>  (160) 
0.0011850000000000001

>  <TransFSScore_1uM>  (160) 
0.085140999999999994

>  <TransFSScore_10nM>  (160) 
0.017645000000000001

>  <TransFSScore_200nM>  (160) 
0.051952999999999999

>  <TransFSScore>  (160) 
0.038981000000000002

>  <FeatureSteinScore>  (160) 
0.32558734912119253

>  <XCos_RefMols>  (160) 
x0708_0

>  <XCos_NumHits>  (160) 
1

>  <XCos_Score1>  (160) 
8.6584

>  <XCos_Score2>  (160) 
0.0978

>  <XCos_Score3>  (160) 
0.0113

$$$$
C#CC1(O)CCN(Cc2cn[nH]c2)CC1
     RDKit          3D

 15 16  0  0  0  0  0  0  0  0999 V2000
    9.2497   -4.5594   28.5181 C   0  0  0  0  0  0  0  0  0  0  0  0
    9.2528   -5.0219   27.4032 C   0  0  0  0  0  0  0  0  0  0  0  0
    9.2507   -5.6108   26.0365 C   0  0  0  0  0  0  0  0  0  0  0  0
    9.0516   -6.9182   26.3611 O   0  0  0  0  0  0  0  0  0  0  0  0
   10.5880   -5.3864   25.3474 C   0  0  0  0  0  0  0  0  0  0  0  0
   10.9105   -3.8975   25.4387 C   0  0  0  0  0  0  0  0  0  0  0  0
    9.7133   -3.0200   25.3474 N   0  0  0  0  0  0  0  0  0  0  0  0
    9.9618   -1.6193   24.9927 C   0  0  0  0  0  0  0  0  0  0  0  0
   10.6066   -1.4111   23.6586 C   0  0  0  0  0  0  0  0  0  0  0  0
   11.8839   -0.9468   23.4132 C   0  0  0  0  0  0  0  0  0  0  0  0
   12.0904   -0.9111   22.0822 N   0  0  0  0  0  0  0  0  0  0  0  0
   10.9857   -1.3361   21.4885 N   0  0  0  0  0  0  0  0  0  0  0  0
   10.0623   -1.6488   22.4142 C   0  0  0  0  0  0  0  0  0  0  0  0
    8.5911   -3.6120   24.5829 C   0  0  0  0  0  0  0  0  0  0  0  0
    8.1291   -4.9630   25.1996 C   0  0  0  0  0  0  0  0  0  0  0  0
  1  2  3  0
  2  3  1  0
  3  4  1  0
  3  5  1  0
  5  6  1  0
  6  7  1  0
  7  8  1  0
  7 14  1  0
  8  9  1  0
  9 10  1  0
 10 11  2  0
 11 12  1  0
 12 13  1  0
 13  9  2  0
 14 15  1  0
 15  3  1  0
M  END
>  <Hit>  (161) 
Mpro-x0387_0

>  <Receptor>  (161) 
Mpro-x0387_0

>  <SCORE>  (161) 
-13.106299999999999

>  <SCORE.norm>  (161) 
-0.873753

>  <SCORE.heavy>  (161) 
15

>  <OrigSmiles>  (161) 
C#CC1(O)CCN(Cc2cn[nH]c2)CC1

>  <SuCOS_Score>  (161) 
0.51287875009498007

>  <Max_SuCOS_Score>  (161) 
0

>  <Cum_SuCOS_Score>  (161) 
0

>  <TransFSScore_50nM>  (161) 
0.001274

>  <TransFSScore_1uM>  (161) 
0.087974999999999998

>  <TransFSScore_10nM>  (161) 
0.016390999999999999

>  <TransFSScore_200nM>  (161) 
0.053123999999999998

>  <TransFSScore>  (161) 
0.039690999999999997

>  <FeatureSteinScore>  (161) 
0.31128036224903338

>  <XCos_RefMols>  (161) 
x0830_0

>  <XCos_NumHits>  (161) 
1

>  <XCos_Score1>  (161) 
8.6202

>  <XCos_Score2>  (161) 
0.0974

>  <XCos_Score3>  (161) 
0.0113

$$$$
C#CC1(O)CCN(Cc2cnccn2)CC1
     RDKit          3D

 16 17  0  0  0  0  0  0  0  0999 V2000
    7.5405   -6.3233   27.4452 C   0  0  0  0  0  0  0  0  0  0  0  0
    8.1162   -5.9233   26.4640 C   0  0  0  0  0  0  0  0  0  0  0  0
    8.8232   -5.4324   25.2596 C   0  0  0  0  0  0  0  0  0  0  0  0
    9.5744   -6.4904   24.7172 O   0  0  0  0  0  0  0  0  0  0  0  0
    7.7674   -5.0241   24.2277 C   0  0  0  0  0  0  0  0  0  0  0  0
    8.3619   -4.2379   23.0575 C   0  0  0  0  0  0  0  0  0  0  0  0
    9.2844   -3.1522   23.4825 N   0  0  0  0  0  0  0  0  0  0  0  0
    9.3267   -1.9130   22.6798 C   0  0  0  0  0  0  0  0  0  0  0  0
   10.6588   -1.2221   22.6256 C   0  0  0  0  0  0  0  0  0  0  0  0
   11.1827   -0.5803   23.7584 C   0  0  0  0  0  0  0  0  0  0  0  0
   12.4038    0.0108   23.6888 N   0  0  0  0  0  0  0  0  0  0  0  0
   13.1315   -0.0104   22.5424 C   0  0  0  0  0  0  0  0  0  0  0  0
   12.6191   -0.6545   21.4153 C   0  0  0  0  0  0  0  0  0  0  0  0
   11.3975   -1.2490   21.4788 N   0  0  0  0  0  0  0  0  0  0  0  0
    9.3691   -2.9287   24.9353 C   0  0  0  0  0  0  0  0  0  0  0  0
    9.7533   -4.2447   25.6350 C   0  0  0  0  0  0  0  0  0  0  0  0
  1  2  3  0
  2  3  1  0
  3  4  1  0
  3  5  1  0
  5  6  1  0
  6  7  1  0
  7  8  1  0
  7 15  1  0
  8  9  1  0
  9 10  2  0
 10 11  1  0
 11 12  2  0
 12 13  1  0
 13 14  2  0
 14  9  1  0
 15 16  1  0
 16  3  1  0
M  END
>  <Hit>  (162) 
Mpro-x0387_0

>  <Receptor>  (162) 
Mpro-x0874_0

>  <SCORE>  (162) 
-11.643599999999999

>  <SCORE.norm>  (162) 
-0.72772300000000001

>  <SCORE.heavy>  (162) 
16

>  <OrigSmiles>  (162) 
C#CC1(O)CCN(Cc2cnccn2)CC1

>  <SuCOS_Score>  (162) 
0.42847872835852702

>  <Max_SuCOS_Score>  (162) 
0

>  <Cum_SuCOS_Score>  (162) 
0

>  <TransFSScore_50nM>  (162) 
0.028466999999999999

>  <TransFSScore_1uM>  (162) 
0.043258999999999999

>  <TransFSScore_10nM>  (162) 
0.147977

>  <TransFSScore_200nM>  (162) 
0.38193500000000002

>  <TransFSScore>  (162) 
0.1504095

>  <FeatureSteinScore>  (162) 
0.44439209819583997

>  <XCos_RefMols>  (162) 
x1392_0,x0874_0

>  <XCos_NumHits>  (162) 
2

>  <XCos_Score1>  (162) 
11.5033

>  <XCos_Score2>  (162) 
0.1950

>  <XCos_Score3>  (162) 
0.0169

$$$$
C#CC1(O)CCN(Cc2cnccn2)CC1
     RDKit          3D

 16 17  0  0  0  0  0  0  0  0999 V2000
    7.5481   -6.3270   27.4749 C   0  0  0  0  0  0  0  0  0  0  0  0
    8.1212   -5.9237   26.4935 C   0  0  0  0  0  0  0  0  0  0  0  0
    8.8245   -5.4287   25.2886 C   0  0  0  0  0  0  0  0  0  0  0  0
    9.5736   -6.4850   24.7399 O   0  0  0  0  0  0  0  0  0  0  0  0
    7.7655   -5.0164   24.2615 C   0  0  0  0  0  0  0  0  0  0  0  0
    8.3564   -4.2262   23.0923 C   0  0  0  0  0  0  0  0  0  0  0  0
    9.2806   -3.1422   23.5182 N   0  0  0  0  0  0  0  0  0  0  0  0
    9.3206   -1.9001   22.7198 C   0  0  0  0  0  0  0  0  0  0  0  0
   10.6519   -1.2077   22.6665 C   0  0  0  0  0  0  0  0  0  0  0  0
   11.1685   -0.5543   23.7960 C   0  0  0  0  0  0  0  0  0  0  0  0
   12.3891    0.0381   23.7276 N   0  0  0  0  0  0  0  0  0  0  0  0
   13.1232    0.0070   22.5856 C   0  0  0  0  0  0  0  0  0  0  0  0
   12.6182   -0.6486   21.4619 C   0  0  0  0  0  0  0  0  0  0  0  0
   11.3972   -1.2445   21.5242 N   0  0  0  0  0  0  0  0  0  0  0  0
    9.3700   -2.9240   24.9715 C   0  0  0  0  0  0  0  0  0  0  0  0
    9.7562   -4.2426   25.6652 C   0  0  0  0  0  0  0  0  0  0  0  0
  1  2  3  0
  2  3  1  0
  3  4  1  0
  3  5  1  0
  5  6  1  0
  6  7  1  0
  7  8  1  0
  7 15  1  0
  8  9  1  0
  9 10  2  0
 10 11  1  0
 11 12  2  0
 12 13  1  0
 13 14  2  0
 14  9  1  0
 15 16  1  0
 16  3  1  0
M  END
>  <Hit>  (163) 
Mpro-x0387_0

>  <Receptor>  (163) 
Mpro-x0874_0

>  <SCORE>  (163) 
-11.7681

>  <SCORE.norm>  (163) 
-0.73550899999999997

>  <SCORE.heavy>  (163) 
16

>  <OrigSmiles>  (163) 
C#CC1(O)CCN(Cc2cnccn2)CC1

>  <SuCOS_Score>  (163) 
0.43614846915310046

>  <Max_SuCOS_Score>  (163) 
0

>  <Cum_SuCOS_Score>  (163) 
0

>  <TransFSScore_50nM>  (163) 
0.027191

>  <TransFSScore_1uM>  (163) 
0.042948

>  <TransFSScore_10nM>  (163) 
0.147762

>  <TransFSScore_200nM>  (163) 
0.38392599999999999

>  <TransFSScore>  (163) 
0.15045675

>  <FeatureSteinScore>  (163) 
0.464210421923415

>  <XCos_RefMols>  (163) 
x1392_0,x0874_0

>  <XCos_NumHits>  (163) 
2

>  <XCos_Score1>  (163) 
11.5590

>  <XCos_Score2>  (163) 
0.1959

>  <XCos_Score3>  (163) 
0.0169

$$$$
C#CC1(O)CCN(Cc2cnccn2)CC1
     RDKit          3D

 16 17  0  0  0  0  0  0  0  0999 V2000
    9.1610   -0.8454   26.2920 C   0  0  0  0  0  0  0  0  0  0  0  0
    8.8554   -1.9299   25.8588 C   0  0  0  0  0  0  0  0  0  0  0  0
    8.4665   -3.2577   25.3107 C   0  0  0  0  0  0  0  0  0  0  0  0
    7.8603   -3.7804   26.4122 O   0  0  0  0  0  0  0  0  0  0  0  0
    9.6945   -4.0543   24.8971 C   0  0  0  0  0  0  0  0  0  0  0  0
   10.5336   -3.1672   23.9813 C   0  0  0  0  0  0  0  0  0  0  0  0
    9.7243   -2.2771   23.1067 N   0  0  0  0  0  0  0  0  0  0  0  0
   10.4053   -1.7295   21.9292 C   0  0  0  0  0  0  0  0  0  0  0  0
   11.6687   -0.9724   22.2264 C   0  0  0  0  0  0  0  0  0  0  0  0
   12.7828   -1.1013   21.3844 C   0  0  0  0  0  0  0  0  0  0  0  0
   13.9150   -0.3984   21.6539 N   0  0  0  0  0  0  0  0  0  0  0  0
   13.9854    0.4309   22.7285 C   0  0  0  0  0  0  0  0  0  0  0  0
   12.8791    0.5646   23.5685 C   0  0  0  0  0  0  0  0  0  0  0  0
   11.7446   -0.1363   23.3029 N   0  0  0  0  0  0  0  0  0  0  0  0
    8.3760   -2.8049   22.7944 C   0  0  0  0  0  0  0  0  0  0  0  0
    7.5492   -3.0600   24.0868 C   0  0  0  0  0  0  0  0  0  0  0  0
  1  2  3  0
  2  3  1  0
  3  4  1  0
  3  5  1  0
  5  6  1  0
  6  7  1  0
  7  8  1  0
  7 15  1  0
  8  9  1  0
  9 10  2  0
 10 11  1  0
 11 12  2  0
 12 13  1  0
 13 14  2  0
 14  9  1  0
 15 16  1  0
 16  3  1  0
M  END
>  <Hit>  (164) 
Mpro-x0387_0

>  <Receptor>  (164) 
Mpro-x0874_0

>  <SCORE>  (164) 
-11.971500000000001

>  <SCORE.norm>  (164) 
-0.74822100000000002

>  <SCORE.heavy>  (164) 
16

>  <OrigSmiles>  (164) 
C#CC1(O)CCN(Cc2cnccn2)CC1

>  <SuCOS_Score>  (164) 
0.37715887909400364

>  <Max_SuCOS_Score>  (164) 
0

>  <Cum_SuCOS_Score>  (164) 
0

>  <TransFSScore_50nM>  (164) 
0.025302000000000002

>  <TransFSScore_1uM>  (164) 
0.062066999999999997

>  <TransFSScore_10nM>  (164) 
0.039481000000000002

>  <TransFSScore_200nM>  (164) 
0.16129099999999999

>  <TransFSScore>  (164) 
0.072035249999999995

>  <FeatureSteinScore>  (164) 
0.32251344279711303

>  <XCos_RefMols>  (164) 
x1392_0,x0874_0

>  <XCos_NumHits>  (164) 
2

>  <XCos_Score1>  (164) 
9.6666

>  <XCos_Score2>  (164) 
0.1092

>  <XCos_Score3>  (164) 
0.0113

$$$$
C#CC1(O)CCN(Cc2cnccn2)CC1
     RDKit          3D

 16 17  0  0  0  0  0  0  0  0999 V2000
    8.9153   -1.8299   27.1094 C   0  0  0  0  0  0  0  0  0  0  0  0
    8.7510   -2.9582   26.7129 C   0  0  0  0  0  0  0  0  0  0  0  0
    8.5281   -4.3470   26.2267 C   0  0  0  0  0  0  0  0  0  0  0  0
    8.2927   -4.9612   27.4189 O   0  0  0  0  0  0  0  0  0  0  0  0
    9.7720   -4.8863   25.5372 C   0  0  0  0  0  0  0  0  0  0  0  0
   10.1969   -3.8647   24.4857 C   0  0  0  0  0  0  0  0  0  0  0  0
    9.0552   -3.1727   23.8300 N   0  0  0  0  0  0  0  0  0  0  0  0
    9.3408   -2.5204   22.5481 C   0  0  0  0  0  0  0  0  0  0  0  0
   10.4924   -1.5556   22.5740 C   0  0  0  0  0  0  0  0  0  0  0  0
   10.8205   -0.8807   23.7589 C   0  0  0  0  0  0  0  0  0  0  0  0
   11.8750   -0.0227   23.7747 N   0  0  0  0  0  0  0  0  0  0  0  0
   12.6199    0.1921   22.6583 C   0  0  0  0  0  0  0  0  0  0  0  0
   12.2993   -0.4783   21.4772 C   0  0  0  0  0  0  0  0  0  0  0  0
   11.2455   -1.3375   21.4566 N   0  0  0  0  0  0  0  0  0  0  0  0
    7.8058   -3.9678   23.8020 C   0  0  0  0  0  0  0  0  0  0  0  0
    7.3471   -4.3611   25.2351 C   0  0  0  0  0  0  0  0  0  0  0  0
  1  2  3  0
  2  3  1  0
  3  4  1  0
  3  5  1  0
  5  6  1  0
  6  7  1  0
  7  8  1  0
  7 15  1  0
  8  9  1  0
  9 10  2  0
 10 11  1  0
 11 12  2  0
 12 13  1  0
 13 14  2  0
 14  9  1  0
 15 16  1  0
 16  3  1  0
M  END
>  <Hit>  (165) 
Mpro-x0387_0

>  <Receptor>  (165) 
Mpro-x1249_0

>  <SCORE>  (165) 
-12.971

>  <SCORE.norm>  (165) 
-0.81069000000000002

>  <SCORE.heavy>  (165) 
16

>  <OrigSmiles>  (165) 
C#CC1(O)CCN(Cc2cnccn2)CC1

>  <SuCOS_Score>  (165) 
0.51968653720133029

>  <Max_SuCOS_Score>  (165) 
0

>  <Cum_SuCOS_Score>  (165) 
0

>  <TransFSScore_50nM>  (165) 
0.018603000000000001

>  <TransFSScore_1uM>  (165) 
0.072354000000000002

>  <TransFSScore_10nM>  (165) 
0.053566999999999997

>  <TransFSScore_200nM>  (165) 
0.31393599999999999

>  <TransFSScore>  (165) 
0.11461499999999999

>  <FeatureSteinScore>  (165) 
0.49284961595667764

>  <XCos_RefMols>  (165) 
x1392_0,x1382_0

>  <XCos_NumHits>  (165) 
2

>  <XCos_Score1>  (165) 
11.3206

>  <XCos_Score2>  (165) 
0.1919

>  <XCos_Score3>  (165) 
0.0169

$$$$
C#CC1(O)CCN(Cc2cnccn2)CC1
     RDKit          3D

 16 17  0  0  0  0  0  0  0  0999 V2000
    8.8331   -1.8371   27.0929 C   0  0  0  0  0  0  0  0  0  0  0  0
    8.7040   -2.9708   26.6988 C   0  0  0  0  0  0  0  0  0  0  0  0
    8.5247   -4.3675   26.2174 C   0  0  0  0  0  0  0  0  0  0  0  0
    8.2859   -4.9810   27.4093 O   0  0  0  0  0  0  0  0  0  0  0  0
    9.7931   -4.8784   25.5512 C   0  0  0  0  0  0  0  0  0  0  0  0
   10.2086   -3.8521   24.5006 C   0  0  0  0  0  0  0  0  0  0  0  0
    9.0604   -3.1935   23.8225 N   0  0  0  0  0  0  0  0  0  0  0  0
    9.3498   -2.5412   22.5415 C   0  0  0  0  0  0  0  0  0  0  0  0
   10.4971   -1.5714   22.5725 C   0  0  0  0  0  0  0  0  0  0  0  0
   10.8268   -0.9067   23.7626 C   0  0  0  0  0  0  0  0  0  0  0  0
   11.8775   -0.0441   23.7829 N   0  0  0  0  0  0  0  0  0  0  0  0
   12.6171    0.1851   22.6658 C   0  0  0  0  0  0  0  0  0  0  0  0
   12.2949   -0.4751   21.4793 C   0  0  0  0  0  0  0  0  0  0  0  0
   11.2449   -1.3389   21.4543 N   0  0  0  0  0  0  0  0  0  0  0  0
    7.8324   -4.0206   23.7791 C   0  0  0  0  0  0  0  0  0  0  0  0
    7.3607   -4.4176   25.2071 C   0  0  0  0  0  0  0  0  0  0  0  0
  1  2  3  0
  2  3  1  0
  3  4  1  0
  3  5  1  0
  5  6  1  0
  6  7  1  0
  7  8  1  0
  7 15  1  0
  8  9  1  0
  9 10  2  0
 10 11  1  0
 11 12  2  0
 12 13  1  0
 13 14  2  0
 14  9  1  0
 15 16  1  0
 16  3  1  0
M  END
>  <Hit>  (166) 
Mpro-x0387_0

>  <Receptor>  (166) 
Mpro-x1249_0

>  <SCORE>  (166) 
-12.9732

>  <SCORE.norm>  (166) 
-0.81082299999999996

>  <SCORE.heavy>  (166) 
16

>  <OrigSmiles>  (166) 
C#CC1(O)CCN(Cc2cnccn2)CC1

>  <SuCOS_Score>  (166) 
0.51741106526694036

>  <Max_SuCOS_Score>  (166) 
0

>  <Cum_SuCOS_Score>  (166) 
0

>  <TransFSScore_50nM>  (166) 
0.018135999999999999

>  <TransFSScore_1uM>  (166) 
0.073091000000000003

>  <TransFSScore_10nM>  (166) 
0.052553000000000002

>  <TransFSScore_200nM>  (166) 
0.32930300000000001

>  <TransFSScore>  (166) 
0.11827075000000001

>  <FeatureSteinScore>  (166) 
0.49022967531384987

>  <XCos_RefMols>  (166) 
x1392_0,x1382_0

>  <XCos_NumHits>  (166) 
2

>  <XCos_Score1>  (166) 
11.3531

>  <XCos_Score2>  (166) 
0.1924

>  <XCos_Score3>  (166) 
0.0169

$$$$
C#CC1(O)CCN(Cc2cnccn2)CC1
     RDKit          3D

 16 17  0  0  0  0  0  0  0  0999 V2000
    8.9597   -1.8091   27.1310 C   0  0  0  0  0  0  0  0  0  0  0  0
    8.7541   -2.9327   26.7407 C   0  0  0  0  0  0  0  0  0  0  0  0
    8.5209   -4.3217   26.2599 C   0  0  0  0  0  0  0  0  0  0  0  0
    8.2791   -4.9292   27.4543 O   0  0  0  0  0  0  0  0  0  0  0  0
    9.7615   -4.8736   25.5744 C   0  0  0  0  0  0  0  0  0  0  0  0
   10.1957   -3.8597   24.5193 C   0  0  0  0  0  0  0  0  0  0  0  0
    9.0605   -3.1615   23.8591 N   0  0  0  0  0  0  0  0  0  0  0  0
    9.3528   -2.5167   22.5750 C   0  0  0  0  0  0  0  0  0  0  0  0
   10.5116   -1.5604   22.5987 C   0  0  0  0  0  0  0  0  0  0  0  0
   10.8497   -0.8914   23.7841 C   0  0  0  0  0  0  0  0  0  0  0  0
   11.9105   -0.0411   23.7978 N   0  0  0  0  0  0  0  0  0  0  0  0
   12.6522    0.1715   22.6788 C   0  0  0  0  0  0  0  0  0  0  0  0
   12.3216   -0.4931   21.4971 C   0  0  0  0  0  0  0  0  0  0  0  0
   11.2615   -1.3445   21.4786 N   0  0  0  0  0  0  0  0  0  0  0  0
    7.8049   -3.9468   23.8327 C   0  0  0  0  0  0  0  0  0  0  0  0
    7.3412   -4.3307   25.2668 C   0  0  0  0  0  0  0  0  0  0  0  0
  1  2  3  0
  2  3  1  0
  3  4  1  0
  3  5  1  0
  5  6  1  0
  6  7  1  0
  7  8  1  0
  7 15  1  0
  8  9  1  0
  9 10  2  0
 10 11  1  0
 11 12  2  0
 12 13  1  0
 13 14  2  0
 14  9  1  0
 15 16  1  0
 16  3  1  0
M  END
>  <Hit>  (167) 
Mpro-x0387_0

>  <Receptor>  (167) 
Mpro-x1249_0

>  <SCORE>  (167) 
-12.9876

>  <SCORE.norm>  (167) 
-0.81172200000000005

>  <SCORE.heavy>  (167) 
16

>  <OrigSmiles>  (167) 
C#CC1(O)CCN(Cc2cnccn2)CC1

>  <SuCOS_Score>  (167) 
0.52829516473724258

>  <Max_SuCOS_Score>  (167) 
0

>  <Cum_SuCOS_Score>  (167) 
0

>  <TransFSScore_50nM>  (167) 
0.019886999999999998

>  <TransFSScore_1uM>  (167) 
0.070241999999999999

>  <TransFSScore_10nM>  (167) 
0.052711000000000001

>  <TransFSScore_200nM>  (167) 
0.31800899999999999

>  <TransFSScore>  (167) 
0.11521224999999999

>  <FeatureSteinScore>  (167) 
0.49547720635624348

>  <XCos_RefMols>  (167) 
x1392_0,x1382_0

>  <XCos_NumHits>  (167) 
2

>  <XCos_Score1>  (167) 
11.2509

>  <XCos_Score2>  (167) 
0.1271

>  <XCos_Score3>  (167) 
0.0113

$$$$
C#CC1(O)CCN(Cc2cnccn2)CC1
     RDKit          3D

 16 17  0  0  0  0  0  0  0  0999 V2000
    8.9458   -1.7736   27.1405 C   0  0  0  0  0  0  0  0  0  0  0  0
    8.7420   -2.8862   26.7187 C   0  0  0  0  0  0  0  0  0  0  0  0
    8.4747   -4.2595   26.2115 C   0  0  0  0  0  0  0  0  0  0  0  0
    8.2316   -4.8868   27.3954 O   0  0  0  0  0  0  0  0  0  0  0  0
    9.6965   -4.8229   25.5020 C   0  0  0  0  0  0  0  0  0  0  0  0
   10.1419   -3.7964   24.4638 C   0  0  0  0  0  0  0  0  0  0  0  0
    9.0154   -3.0607   23.8300 N   0  0  0  0  0  0  0  0  0  0  0  0
    9.3089   -2.3953   22.5567 C   0  0  0  0  0  0  0  0  0  0  0  0
   10.5167   -1.5017   22.5756 C   0  0  0  0  0  0  0  0  0  0  0  0
   10.8861   -0.8403   23.7559 C   0  0  0  0  0  0  0  0  0  0  0  0
   11.9905   -0.0474   23.7655 N   0  0  0  0  0  0  0  0  0  0  0  0
   12.7460    0.1149   22.6473 C   0  0  0  0  0  0  0  0  0  0  0  0
   12.3842   -0.5425   21.4707 C   0  0  0  0  0  0  0  0  0  0  0  0
   11.2805   -1.3366   21.4563 N   0  0  0  0  0  0  0  0  0  0  0  0
    7.7432   -3.8187   23.8000 C   0  0  0  0  0  0  0  0  0  0  0  0
    7.2854   -4.2227   25.2304 C   0  0  0  0  0  0  0  0  0  0  0  0
  1  2  3  0
  2  3  1  0
  3  4  1  0
  3  5  1  0
  5  6  1  0
  6  7  1  0
  7  8  1  0
  7 15  1  0
  8  9  1  0
  9 10  2  0
 10 11  1  0
 11 12  2  0
 12 13  1  0
 13 14  2  0
 14  9  1  0
 15 16  1  0
 16  3  1  0
M  END
>  <Hit>  (168) 
Mpro-x0387_0

>  <Receptor>  (168) 
Mpro-x1249_0

>  <SCORE>  (168) 
-13.0039

>  <SCORE.norm>  (168) 
-0.81274100000000005

>  <SCORE.heavy>  (168) 
16

>  <OrigSmiles>  (168) 
C#CC1(O)CCN(Cc2cnccn2)CC1

>  <SuCOS_Score>  (168) 
0.51756099148503987

>  <Max_SuCOS_Score>  (168) 
0

>  <Cum_SuCOS_Score>  (168) 
0

>  <TransFSScore_50nM>  (168) 
0.023511000000000001

>  <TransFSScore_1uM>  (168) 
0.070035

>  <TransFSScore_10nM>  (168) 
0.048460999999999997

>  <TransFSScore_200nM>  (168) 
0.307313

>  <TransFSScore>  (168) 
0.11233

>  <FeatureSteinScore>  (168) 
0.51820538399961991

>  <XCos_RefMols>  (168) 
x1392_0,x1382_0

>  <XCos_NumHits>  (168) 
2

>  <XCos_Score1>  (168) 
11.3013

>  <XCos_Score2>  (168) 
0.1915

>  <XCos_Score3>  (168) 
0.0169

$$$$
C#CC1(O)CCN(Cc2cnccn2)CC1
     RDKit          3D

 16 17  0  0  0  0  0  0  0  0999 V2000
    8.9121   -1.7806   27.1509 C   0  0  0  0  0  0  0  0  0  0  0  0
    8.7428   -2.9157   26.7764 C   0  0  0  0  0  0  0  0  0  0  0  0
    8.5202   -4.3082   26.3009 C   0  0  0  0  0  0  0  0  0  0  0  0
    8.2801   -4.9124   27.4973 O   0  0  0  0  0  0  0  0  0  0  0  0
    9.7660   -4.8543   25.6202 C   0  0  0  0  0  0  0  0  0  0  0  0
   10.1955   -3.8417   24.5618 C   0  0  0  0  0  0  0  0  0  0  0  0
    9.0568   -3.1541   23.8965 N   0  0  0  0  0  0  0  0  0  0  0  0
    9.3474   -2.5126   22.6103 C   0  0  0  0  0  0  0  0  0  0  0  0
   10.4920   -1.5394   22.6352 C   0  0  0  0  0  0  0  0  0  0  0  0
   10.8208   -0.8676   23.8216 C   0  0  0  0  0  0  0  0  0  0  0  0
   11.8690   -0.0019   23.8363 N   0  0  0  0  0  0  0  0  0  0  0  0
   12.6069    0.2236   22.7174 C   0  0  0  0  0  0  0  0  0  0  0  0
   12.2855   -0.4436   21.5347 C   0  0  0  0  0  0  0  0  0  0  0  0
   11.2381   -1.3105   21.5151 N   0  0  0  0  0  0  0  0  0  0  0  0
    7.8067   -3.9482   23.8706 C   0  0  0  0  0  0  0  0  0  0  0  0
    7.3427   -4.3294   25.3053 C   0  0  0  0  0  0  0  0  0  0  0  0
  1  2  3  0
  2  3  1  0
  3  4  1  0
  3  5  1  0
  5  6  1  0
  6  7  1  0
  7  8  1  0
  7 15  1  0
  8  9  1  0
  9 10  2  0
 10 11  1  0
 11 12  2  0
 12 13  1  0
 13 14  2  0
 14  9  1  0
 15 16  1  0
 16  3  1  0
M  END
>  <Hit>  (169) 
Mpro-x0387_0

>  <Receptor>  (169) 
Mpro-x1249_0

>  <SCORE>  (169) 
-13.0311

>  <SCORE.norm>  (169) 
-0.81444099999999997

>  <SCORE.heavy>  (169) 
16

>  <OrigSmiles>  (169) 
C#CC1(O)CCN(Cc2cnccn2)CC1

>  <SuCOS_Score>  (169) 
0.53162039972095931

>  <Max_SuCOS_Score>  (169) 
0

>  <Cum_SuCOS_Score>  (169) 
0

>  <TransFSScore_50nM>  (169) 
0.020112999999999999

>  <TransFSScore_1uM>  (169) 
0.070732000000000003

>  <TransFSScore_10nM>  (169) 
0.059483000000000001

>  <TransFSScore_200nM>  (169) 
0.32002900000000001

>  <TransFSScore>  (169) 
0.11758925000000001

>  <FeatureSteinScore>  (169) 
0.49917606077248083

>  <XCos_RefMols>  (169) 
x1392_0,x1382_0

>  <XCos_NumHits>  (169) 
2

>  <XCos_Score1>  (169) 
11.2734

>  <XCos_Score2>  (169) 
0.1274

>  <XCos_Score3>  (169) 
0.0113

$$$$
C#CC1(O)CCN(Cc2cnccn2)CC1
     RDKit          3D

 16 17  0  0  0  0  0  0  0  0999 V2000
    8.7299   -2.8431   27.5673 C   0  0  0  0  0  0  0  0  0  0  0  0
    8.7780   -3.9235   27.0309 C   0  0  0  0  0  0  0  0  0  0  0  0
    8.8259   -5.2633   26.3850 C   0  0  0  0  0  0  0  0  0  0  0  0
    8.5640   -6.0401   27.4722 O   0  0  0  0  0  0  0  0  0  0  0  0
   10.2042   -5.5352   25.8019 C   0  0  0  0  0  0  0  0  0  0  0  0
   10.5740   -4.3475   24.9174 C   0  0  0  0  0  0  0  0  0  0  0  0
    9.4146   -3.7536   24.1998 N   0  0  0  0  0  0  0  0  0  0  0  0
    9.7292   -2.9217   23.0339 C   0  0  0  0  0  0  0  0  0  0  0  0
   10.6949   -1.8018   23.3002 C   0  0  0  0  0  0  0  0  0  0  0  0
   10.4258   -0.8629   24.3067 C   0  0  0  0  0  0  0  0  0  0  0  0
   11.3149    0.1364   24.5500 N   0  0  0  0  0  0  0  0  0  0  0  0
   12.4646    0.2409   23.8326 C   0  0  0  0  0  0  0  0  0  0  0  0
   12.7385   -0.6916   22.8312 C   0  0  0  0  0  0  0  0  0  0  0  0
   11.8522   -1.6930   22.5845 N   0  0  0  0  0  0  0  0  0  0  0  0
    8.3137   -4.7100   23.9403 C   0  0  0  0  0  0  0  0  0  0  0  0
    7.7728   -5.3297   25.2603 C   0  0  0  0  0  0  0  0  0  0  0  0
  1  2  3  0
  2  3  1  0
  3  4  1  0
  3  5  1  0
  5  6  1  0
  6  7  1  0
  7  8  1  0
  7 15  1  0
  8  9  1  0
  9 10  2  0
 10 11  1  0
 11 12  2  0
 12 13  1  0
 13 14  2  0
 14  9  1  0
 15 16  1  0
 16  3  1  0
M  END
>  <Hit>  (170) 
Mpro-x0387_0

>  <Receptor>  (170) 
Mpro-x0305_0

>  <SCORE>  (170) 
-13.0898

>  <SCORE.norm>  (170) 
-0.81811299999999998

>  <SCORE.heavy>  (170) 
16

>  <OrigSmiles>  (170) 
C#CC1(O)CCN(Cc2cnccn2)CC1

>  <SuCOS_Score>  (170) 
0.50829427644127589

>  <Max_SuCOS_Score>  (170) 
0

>  <Cum_SuCOS_Score>  (170) 
0

>  <TransFSScore_50nM>  (170) 
0.021232000000000001

>  <TransFSScore_1uM>  (170) 
0.076718999999999996

>  <TransFSScore_10nM>  (170) 
0.035735000000000003

>  <TransFSScore_200nM>  (170) 
0.37720700000000001

>  <TransFSScore>  (170) 
0.12772325000000001

>  <FeatureSteinScore>  (170) 
0.2810860219429418

>  <XCos_RefMols>  (170) 
x1392_0,x0305_0

>  <XCos_NumHits>  (170) 
2

>  <XCos_Score1>  (170) 
11.3631

>  <XCos_Score2>  (170) 
0.0642

>  <XCos_Score3>  (170) 
0.0056

$$$$
C#CC1(O)CCN(Cc2cnccn2)CC1
     RDKit          3D

 16 17  0  0  0  0  0  0  0  0999 V2000
    8.7588   -2.8711   27.5567 C   0  0  0  0  0  0  0  0  0  0  0  0
    8.7878   -3.9541   27.0241 C   0  0  0  0  0  0  0  0  0  0  0  0
    8.8442   -5.2898   26.3703 C   0  0  0  0  0  0  0  0  0  0  0  0
    8.5847   -6.0744   27.4525 O   0  0  0  0  0  0  0  0  0  0  0  0
   10.2250   -5.5506   25.7882 C   0  0  0  0  0  0  0  0  0  0  0  0
   10.5899   -4.3557   24.9113 C   0  0  0  0  0  0  0  0  0  0  0  0
    9.4285   -3.7639   24.1952 N   0  0  0  0  0  0  0  0  0  0  0  0
    9.7406   -2.9234   23.0348 C   0  0  0  0  0  0  0  0  0  0  0  0
   10.7087   -1.8069   23.3068 C   0  0  0  0  0  0  0  0  0  0  0  0
   10.4252   -0.8525   24.2946 C   0  0  0  0  0  0  0  0  0  0  0  0
   11.3164    0.1436   24.5434 N   0  0  0  0  0  0  0  0  0  0  0  0
   12.4820    0.2300   23.8497 C   0  0  0  0  0  0  0  0  0  0  0  0
   12.7702   -0.7181   22.8671 C   0  0  0  0  0  0  0  0  0  0  0  0
   11.8820   -1.7163   22.6148 N   0  0  0  0  0  0  0  0  0  0  0  0
    8.3333   -4.7247   23.9281 C   0  0  0  0  0  0  0  0  0  0  0  0
    7.7935   -5.3552   25.2434 C   0  0  0  0  0  0  0  0  0  0  0  0
  1  2  3  0
  2  3  1  0
  3  4  1  0
  3  5  1  0
  5  6  1  0
  6  7  1  0
  7  8  1  0
  7 15  1  0
  8  9  1  0
  9 10  2  0
 10 11  1  0
 11 12  2  0
 12 13  1  0
 13 14  2  0
 14  9  1  0
 15 16  1  0
 16  3  1  0
M  END
>  <Hit>  (171) 
Mpro-x0387_0

>  <Receptor>  (171) 
Mpro-x0305_0

>  <SCORE>  (171) 
-13.1144

>  <SCORE.norm>  (171) 
-0.81964999999999999

>  <SCORE.heavy>  (171) 
16

>  <OrigSmiles>  (171) 
C#CC1(O)CCN(Cc2cnccn2)CC1

>  <SuCOS_Score>  (171) 
0.50750059857068497

>  <Max_SuCOS_Score>  (171) 
0

>  <Cum_SuCOS_Score>  (171) 
0

>  <TransFSScore_50nM>  (171) 
0.021430999999999999

>  <TransFSScore_1uM>  (171) 
0.077055999999999999

>  <TransFSScore_10nM>  (171) 
0.034659000000000002

>  <TransFSScore_200nM>  (171) 
0.36640800000000001

>  <TransFSScore>  (171) 
0.1248885

>  <FeatureSteinScore>  (171) 
0.27790450719463533

>  <XCos_RefMols>  (171) 
x1392_0,x0305_0

>  <XCos_NumHits>  (171) 
2

>  <XCos_Score1>  (171) 
11.3753

>  <XCos_Score2>  (171) 
0.0643

>  <XCos_Score3>  (171) 
0.0056

$$$$
C#CC1(O)CCN(Cc2cncs2)CC1
     RDKit          3D

 15 16  0  0  0  0  0  0  0  0999 V2000
    7.7287   -6.3883   28.3362 C   0  0  0  0  0  0  0  0  0  0  0  0
    8.2514   -6.0726   27.2964 C   0  0  0  0  0  0  0  0  0  0  0  0
    8.8930   -5.6853   26.0199 C   0  0  0  0  0  0  0  0  0  0  0  0
    9.5916   -6.7959   25.5131 O   0  0  0  0  0  0  0  0  0  0  0  0
    7.7845   -5.3295   25.0246 C   0  0  0  0  0  0  0  0  0  0  0  0
    8.3223   -4.6443   23.7671 C   0  0  0  0  0  0  0  0  0  0  0  0
    9.2858   -3.5497   24.0566 N   0  0  0  0  0  0  0  0  0  0  0  0
    9.3016   -2.3745   23.1619 C   0  0  0  0  0  0  0  0  0  0  0  0
   10.3915   -1.3834   23.4145 C   0  0  0  0  0  0  0  0  0  0  0  0
   10.3149   -0.2684   24.2418 C   0  0  0  0  0  0  0  0  0  0  0  0
   11.4687    0.4450   24.3234 N   0  0  0  0  0  0  0  0  0  0  0  0
   12.4685   -0.0806   23.5819 C   0  0  0  0  0  0  0  0  0  0  0  0
   11.9518   -1.4708   22.7870 S   0  0  0  0  0  0  0  0  0  0  0  0
    9.4618   -3.2235   25.4814 C   0  0  0  0  0  0  0  0  0  0  0  0
    9.8646   -4.4940   26.2521 C   0  0  0  0  0  0  0  0  0  0  0  0
  1  2  3  0
  2  3  1  0
  3  4  1  0
  3  5  1  0
  5  6  1  0
  6  7  1  0
  7  8  1  0
  7 14  1  0
  8  9  1  0
  9 10  2  0
 10 11  1  0
 11 12  2  0
 12 13  1  0
 13  9  1  0
 14 15  1  0
 15  3  1  0
M  END
>  <Hit>  (172) 
Mpro-x0387_0

>  <Receptor>  (172) 
Mpro-x0305_0

>  <SCORE>  (172) 
-10.697900000000001

>  <SCORE.norm>  (172) 
-0.71319600000000005

>  <SCORE.heavy>  (172) 
15

>  <OrigSmiles>  (172) 
C#CC1(O)CCN(Cc2cncs2)CC1

>  <SuCOS_Score>  (172) 
0.48872400232782653

>  <Max_SuCOS_Score>  (172) 
0

>  <Cum_SuCOS_Score>  (172) 
0

>  <TransFSScore_50nM>  (172) 
0.010425

>  <TransFSScore_1uM>  (172) 
0.034374000000000002

>  <TransFSScore_10nM>  (172) 
0.111898

>  <TransFSScore_200nM>  (172) 
0.093938999999999995

>  <TransFSScore>  (172) 
0.062658999999999992

>  <FeatureSteinScore>  (172) 
0.48738227414186586

>  <XCos_RefMols>  (172) 
x1392_0,x0692_0

>  <XCos_NumHits>  (172) 
2

>  <XCos_Score1>  (172) 
12.4475

>  <XCos_Score2>  (172) 
0.2813

>  <XCos_Score3>  (172) 
0.0226

$$$$
C#CC1(O)CCN(Cc2cncs2)CC1
     RDKit          3D

 15 16  0  0  0  0  0  0  0  0999 V2000
    7.7395   -5.9572   27.2343 C   0  0  0  0  0  0  0  0  0  0  0  0
    8.3224   -5.5970   26.2421 C   0  0  0  0  0  0  0  0  0  0  0  0
    9.0382   -5.1547   25.0241 C   0  0  0  0  0  0  0  0  0  0  0  0
    9.5480   -6.2883   24.3660 O   0  0  0  0  0  0  0  0  0  0  0  0
    8.0195   -4.4870   24.0955 C   0  0  0  0  0  0  0  0  0  0  0  0
    8.6824   -3.7389   22.9376 C   0  0  0  0  0  0  0  0  0  0  0  0
    9.8115   -2.8707   23.3641 N   0  0  0  0  0  0  0  0  0  0  0  0
   10.0369   -1.6053   22.6364 C   0  0  0  0  0  0  0  0  0  0  0  0
   11.3958   -1.0027   22.7915 C   0  0  0  0  0  0  0  0  0  0  0  0
   12.4483   -1.1015   21.8882 C   0  0  0  0  0  0  0  0  0  0  0  0
   13.5656   -0.4221   22.2583 N   0  0  0  0  0  0  0  0  0  0  0  0
   13.4257    0.2227   23.4375 C   0  0  0  0  0  0  0  0  0  0  0  0
   11.8881   -0.0280   24.0735 S   0  0  0  0  0  0  0  0  0  0  0  0
   10.0191   -2.7736   24.8185 C   0  0  0  0  0  0  0  0  0  0  0  0
   10.1923   -4.1858   25.4069 C   0  0  0  0  0  0  0  0  0  0  0  0
  1  2  3  0
  2  3  1  0
  3  4  1  0
  3  5  1  0
  5  6  1  0
  6  7  1  0
  7  8  1  0
  7 14  1  0
  8  9  1  0
  9 10  2  0
 10 11  1  0
 11 12  2  0
 12 13  1  0
 13  9  1  0
 14 15  1  0
 15  3  1  0
M  END
>  <Hit>  (173) 
Mpro-x0387_0

>  <Receptor>  (173) 
Mpro-x0305_0

>  <SCORE>  (173) 
-10.9465

>  <SCORE.norm>  (173) 
-0.72976700000000005

>  <SCORE.heavy>  (173) 
15

>  <OrigSmiles>  (173) 
C#CC1(O)CCN(Cc2cncs2)CC1

>  <SuCOS_Score>  (173) 
0.50556028573247302

>  <Max_SuCOS_Score>  (173) 
0

>  <Cum_SuCOS_Score>  (173) 
0

>  <TransFSScore_50nM>  (173) 
0.0080700000000000008

>  <TransFSScore_1uM>  (173) 
0.024829

>  <TransFSScore_10nM>  (173) 
0.056863999999999998

>  <TransFSScore_200nM>  (173) 
0.018675000000000001

>  <TransFSScore>  (173) 
0.027109499999999998

>  <FeatureSteinScore>  (173) 
0.53377359195534291

>  <XCos_RefMols>  (173) 
x1392_0,x0874_0

>  <XCos_NumHits>  (173) 
2

>  <XCos_Score1>  (173) 
11.4522

>  <XCos_Score2>  (173) 
0.1941

>  <XCos_Score3>  (173) 
0.0169

$$$$
C#CC1(O)CCN(Cc2cncs2)CC1
     RDKit          3D

 15 16  0  0  0  0  0  0  0  0999 V2000
    7.7545   -6.1152   27.2222 C   0  0  0  0  0  0  0  0  0  0  0  0
    8.3429   -5.7203   26.2465 C   0  0  0  0  0  0  0  0  0  0  0  0
    9.0653   -5.2358   25.0487 C   0  0  0  0  0  0  0  0  0  0  0  0
    9.6543   -6.3377   24.4029 O   0  0  0  0  0  0  0  0  0  0  0  0
    8.0363   -4.6227   24.0941 C   0  0  0  0  0  0  0  0  0  0  0  0
    8.6875   -3.8360   22.9553 C   0  0  0  0  0  0  0  0  0  0  0  0
    9.7551   -2.9080   23.4130 N   0  0  0  0  0  0  0  0  0  0  0  0
    9.9296   -1.6301   22.6932 C   0  0  0  0  0  0  0  0  0  0  0  0
   11.2990   -1.0345   22.7545 C   0  0  0  0  0  0  0  0  0  0  0  0
   11.7058    0.0119   23.5749 C   0  0  0  0  0  0  0  0  0  0  0  0
   13.0216    0.3315   23.4589 N   0  0  0  0  0  0  0  0  0  0  0  0
   13.6767   -0.4423   22.5657 C   0  0  0  0  0  0  0  0  0  0  0  0
   12.6336   -1.5693   21.8776 S   0  0  0  0  0  0  0  0  0  0  0  0
    9.9183   -2.8037   24.8724 C   0  0  0  0  0  0  0  0  0  0  0  0
   10.1535   -4.2058   25.4635 C   0  0  0  0  0  0  0  0  0  0  0  0
  1  2  3  0
  2  3  1  0
  3  4  1  0
  3  5  1  0
  5  6  1  0
  6  7  1  0
  7  8  1  0
  7 14  1  0
  8  9  1  0
  9 10  2  0
 10 11  1  0
 11 12  2  0
 12 13  1  0
 13  9  1  0
 14 15  1  0
 15  3  1  0
M  END
>  <Hit>  (174) 
Mpro-x0387_0

>  <Receptor>  (174) 
Mpro-x0305_0

>  <SCORE>  (174) 
-11.658300000000001

>  <SCORE.norm>  (174) 
-0.77721799999999996

>  <SCORE.heavy>  (174) 
15

>  <OrigSmiles>  (174) 
C#CC1(O)CCN(Cc2cncs2)CC1

>  <SuCOS_Score>  (174) 
0.50985359997890334

>  <Max_SuCOS_Score>  (174) 
0

>  <Cum_SuCOS_Score>  (174) 
0

>  <TransFSScore_50nM>  (174) 
0.0029840000000000001

>  <TransFSScore_1uM>  (174) 
0.034408000000000001

>  <TransFSScore_10nM>  (174) 
0.083666000000000004

>  <TransFSScore_200nM>  (174) 
0.102921

>  <TransFSScore>  (174) 
0.055994749999999996

>  <FeatureSteinScore>  (174) 
0.51291403346589337

>  <XCos_RefMols>  (174) 
x1392_0,x0874_0

>  <XCos_NumHits>  (174) 
2

>  <XCos_Score1>  (174) 
11.5435

>  <XCos_Score2>  (174) 
0.2609

>  <XCos_Score3>  (174) 
0.0226

$$$$
C#CC1(O)CCN(Cc2cncs2)CC1
     RDKit          3D

 15 16  0  0  0  0  0  0  0  0999 V2000
    7.7283   -6.0383   27.1565 C   0  0  0  0  0  0  0  0  0  0  0  0
    8.3214   -5.6574   26.1781 C   0  0  0  0  0  0  0  0  0  0  0  0
    9.0493   -5.1897   24.9770 C   0  0  0  0  0  0  0  0  0  0  0  0
    9.6176   -6.3039   24.3339 O   0  0  0  0  0  0  0  0  0  0  0  0
    8.0289   -4.5623   24.0225 C   0  0  0  0  0  0  0  0  0  0  0  0
    8.6910   -3.7911   22.8794 C   0  0  0  0  0  0  0  0  0  0  0  0
    9.7756   -2.8801   23.3313 N   0  0  0  0  0  0  0  0  0  0  0  0
    9.9704   -1.6079   22.6065 C   0  0  0  0  0  0  0  0  0  0  0  0
   11.3400   -1.0159   22.6950 C   0  0  0  0  0  0  0  0  0  0  0  0
   11.7336    0.0282   23.5247 C   0  0  0  0  0  0  0  0  0  0  0  0
   13.0522    0.3446   23.4345 N   0  0  0  0  0  0  0  0  0  0  0  0
   13.7222   -0.4295   22.5527 C   0  0  0  0  0  0  0  0  0  0  0  0
   12.6897   -1.5528   21.8430 S   0  0  0  0  0  0  0  0  0  0  0  0
    9.9439   -2.7734   24.7900 C   0  0  0  0  0  0  0  0  0  0  0  0
   10.1561   -4.1772   25.3856 C   0  0  0  0  0  0  0  0  0  0  0  0
  1  2  3  0
  2  3  1  0
  3  4  1  0
  3  5  1  0
  5  6  1  0
  6  7  1  0
  7  8  1  0
  7 14  1  0
  8  9  1  0
  9 10  2  0
 10 11  1  0
 11 12  2  0
 12 13  1  0
 13  9  1  0
 14 15  1  0
 15  3  1  0
M  END
>  <Hit>  (175) 
Mpro-x0387_0

>  <Receptor>  (175) 
Mpro-x0305_0

>  <SCORE>  (175) 
-11.7889

>  <SCORE.norm>  (175) 
-0.78592799999999996

>  <SCORE.heavy>  (175) 
15

>  <OrigSmiles>  (175) 
C#CC1(O)CCN(Cc2cncs2)CC1

>  <SuCOS_Score>  (175) 
0.4908106573946513

>  <Max_SuCOS_Score>  (175) 
0

>  <Cum_SuCOS_Score>  (175) 
0

>  <TransFSScore_50nM>  (175) 
0.0028370000000000001

>  <TransFSScore_1uM>  (175) 
0.033571999999999998

>  <TransFSScore_10nM>  (175) 
0.087308999999999998

>  <TransFSScore_200nM>  (175) 
0.094991000000000006

>  <TransFSScore>  (175) 
0.054677249999999997

>  <FeatureSteinScore>  (175) 
0.48420049140769122

>  <XCos_RefMols>  (175) 
x1392_0,x0874_0

>  <XCos_NumHits>  (175) 
2

>  <XCos_Score1>  (175) 
11.4164

>  <XCos_Score2>  (175) 
0.1935

>  <XCos_Score3>  (175) 
0.0169

$$$$
C#CC1(O)CCN(Cc2cncs2)CC1
     RDKit          3D

 15 16  0  0  0  0  0  0  0  0999 V2000
    7.7612   -6.0651   27.1959 C   0  0  0  0  0  0  0  0  0  0  0  0
    8.3246   -5.6755   26.2035 C   0  0  0  0  0  0  0  0  0  0  0  0
    9.0160   -5.1971   24.9852 C   0  0  0  0  0  0  0  0  0  0  0  0
    9.5362   -6.3086   24.2980 O   0  0  0  0  0  0  0  0  0  0  0  0
    7.9735   -4.5292   24.0835 C   0  0  0  0  0  0  0  0  0  0  0  0
    8.6078   -3.7473   22.9319 C   0  0  0  0  0  0  0  0  0  0  0  0
    9.7275   -2.8681   23.3606 N   0  0  0  0  0  0  0  0  0  0  0  0
    9.9214   -1.5850   22.6550 C   0  0  0  0  0  0  0  0  0  0  0  0
   11.2956   -1.0030   22.7361 C   0  0  0  0  0  0  0  0  0  0  0  0
   11.6875    0.0773   23.5189 C   0  0  0  0  0  0  0  0  0  0  0  0
   13.0106    0.3756   23.4344 N   0  0  0  0  0  0  0  0  0  0  0  0
   13.6861   -0.4484   22.6034 C   0  0  0  0  0  0  0  0  0  0  0  0
   12.6527   -1.5953   21.9339 S   0  0  0  0  0  0  0  0  0  0  0  0
    9.9532   -2.7958   24.8136 C   0  0  0  0  0  0  0  0  0  0  0  0
   10.1585   -4.2160   25.3717 C   0  0  0  0  0  0  0  0  0  0  0  0
  1  2  3  0
  2  3  1  0
  3  4  1  0
  3  5  1  0
  5  6  1  0
  6  7  1  0
  7  8  1  0
  7 14  1  0
  8  9  1  0
  9 10  2  0
 10 11  1  0
 11 12  2  0
 12 13  1  0
 13  9  1  0
 14 15  1  0
 15  3  1  0
M  END
>  <Hit>  (176) 
Mpro-x0387_0

>  <Receptor>  (176) 
Mpro-x0305_0

>  <SCORE>  (176) 
-12.0749

>  <SCORE.norm>  (176) 
-0.80499100000000001

>  <SCORE.heavy>  (176) 
15

>  <OrigSmiles>  (176) 
C#CC1(O)CCN(Cc2cncs2)CC1

>  <SuCOS_Score>  (176) 
0.49998112260670652

>  <Max_SuCOS_Score>  (176) 
0

>  <Cum_SuCOS_Score>  (176) 
0

>  <TransFSScore_50nM>  (176) 
0.0026559999999999999

>  <TransFSScore_1uM>  (176) 
0.032760999999999998

>  <TransFSScore_10nM>  (176) 
0.081014000000000003

>  <TransFSScore_200nM>  (176) 
0.090499999999999997

>  <TransFSScore>  (176) 
0.051732750000000001

>  <FeatureSteinScore>  (176) 
0.4986418607679674

>  <XCos_RefMols>  (176) 
x1392_0,x0874_0

>  <XCos_NumHits>  (176) 
2

>  <XCos_Score1>  (176) 
11.5525

>  <XCos_Score2>  (176) 
0.1958

>  <XCos_Score3>  (176) 
0.0169

$$$$
C#CC1(O)CCN(Cc2cncs2)CC1
     RDKit          3D

 15 16  0  0  0  0  0  0  0  0999 V2000
    8.3744   -5.9646   27.7923 C   0  0  0  0  0  0  0  0  0  0  0  0
    8.8185   -5.6312   26.7219 C   0  0  0  0  0  0  0  0  0  0  0  0
    9.3634   -5.2219   25.4079 C   0  0  0  0  0  0  0  0  0  0  0  0
    9.6832   -6.3784   24.6741 O   0  0  0  0  0  0  0  0  0  0  0  0
    8.2608   -4.4730   24.6534 C   0  0  0  0  0  0  0  0  0  0  0  0
    8.7845   -3.7559   23.4078 C   0  0  0  0  0  0  0  0  0  0  0  0
   10.0243   -2.9732   23.6539 N   0  0  0  0  0  0  0  0  0  0  0  0
   10.2206   -1.7161   22.9036 C   0  0  0  0  0  0  0  0  0  0  0  0
   11.6174   -1.1846   22.8854 C   0  0  0  0  0  0  0  0  0  0  0  0
   12.1201   -0.1628   23.6833 C   0  0  0  0  0  0  0  0  0  0  0  0
   13.4401    0.0965   23.4905 N   0  0  0  0  0  0  0  0  0  0  0  0
   14.0046   -0.7017   22.5577 C   0  0  0  0  0  0  0  0  0  0  0  0
   12.8716   -1.7754   21.9293 S   0  0  0  0  0  0  0  0  0  0  0  0
   10.4639   -2.9110   25.0576 C   0  0  0  0  0  0  0  0  0  0  0  0
   10.6281   -4.3398   25.6071 C   0  0  0  0  0  0  0  0  0  0  0  0
  1  2  3  0
  2  3  1  0
  3  4  1  0
  3  5  1  0
  5  6  1  0
  6  7  1  0
  7  8  1  0
  7 14  1  0
  8  9  1  0
  9 10  2  0
 10 11  1  0
 11 12  2  0
 12 13  1  0
 13  9  1  0
 14 15  1  0
 15  3  1  0
M  END
>  <Hit>  (177) 
Mpro-x0387_0

>  <Receptor>  (177) 
Mpro-x0387_0

>  <SCORE>  (177) 
-12.3347

>  <SCORE.norm>  (177) 
-0.82231200000000004

>  <SCORE.heavy>  (177) 
15

>  <OrigSmiles>  (177) 
C#CC1(O)CCN(Cc2cncs2)CC1

>  <SuCOS_Score>  (177) 
0.55503689484669083

>  <Max_SuCOS_Score>  (177) 
0

>  <Cum_SuCOS_Score>  (177) 
0

>  <TransFSScore_50nM>  (177) 
0.006012

>  <TransFSScore_1uM>  (177) 
0.039164999999999998

>  <TransFSScore_10nM>  (177) 
0.017944999999999999

>  <TransFSScore_200nM>  (177) 
0.15548899999999999

>  <TransFSScore>  (177) 
0.05465275

>  <FeatureSteinScore>  (177) 
0.51903029140996138

>  <XCos_RefMols>  (177) 
x1392_0,x0387_0,x1385_0

>  <XCos_NumHits>  (177) 
3

>  <XCos_Score1>  (177) 
11.5595

>  <XCos_Score2>  (177) 
0.1306

>  <XCos_Score3>  (177) 
0.0113

$$$$
C#CC1(O)CCN(Cc2cncs2)CC1
     RDKit          3D

 15 16  0  0  0  0  0  0  0  0999 V2000
    8.1682   -5.7456   28.4403 C   0  0  0  0  0  0  0  0  0  0  0  0
    8.6979   -5.5510   27.3746 C   0  0  0  0  0  0  0  0  0  0  0  0
    9.3482   -5.3123   26.0664 C   0  0  0  0  0  0  0  0  0  0  0  0
    9.9003   -6.5233   25.6115 O   0  0  0  0  0  0  0  0  0  0  0  0
    8.2642   -4.8839   25.0728 C   0  0  0  0  0  0  0  0  0  0  0  0
    8.8465   -4.3367   23.7684 C   0  0  0  0  0  0  0  0  0  0  0  0
    9.9376   -3.3485   23.9769 N   0  0  0  0  0  0  0  0  0  0  0  0
   10.0676   -2.2342   23.0162 C   0  0  0  0  0  0  0  0  0  0  0  0
   11.3633   -1.4904   23.0592 C   0  0  0  0  0  0  0  0  0  0  0  0
   11.6467   -0.3746   23.8389 C   0  0  0  0  0  0  0  0  0  0  0  0
   12.9207    0.0822   23.7156 N   0  0  0  0  0  0  0  0  0  0  0  0
   13.6636   -0.6497   22.8564 C   0  0  0  0  0  0  0  0  0  0  0  0
   12.7555   -1.9099   22.2095 S   0  0  0  0  0  0  0  0  0  0  0  0
   10.1856   -2.9676   25.3773 C   0  0  0  0  0  0  0  0  0  0  0  0
   10.4572   -4.2324   26.2121 C   0  0  0  0  0  0  0  0  0  0  0  0
  1  2  3  0
  2  3  1  0
  3  4  1  0
  3  5  1  0
  5  6  1  0
  6  7  1  0
  7  8  1  0
  7 14  1  0
  8  9  1  0
  9 10  2  0
 10 11  1  0
 11 12  2  0
 12 13  1  0
 13  9  1  0
 14 15  1  0
 15  3  1  0
M  END
>  <Hit>  (178) 
Mpro-x0387_0

>  <Receptor>  (178) 
Mpro-x0387_0

>  <SCORE>  (178) 
-12.360799999999999

>  <SCORE.norm>  (178) 
-0.82405300000000004

>  <SCORE.heavy>  (178) 
15

>  <OrigSmiles>  (178) 
C#CC1(O)CCN(Cc2cncs2)CC1

>  <SuCOS_Score>  (178) 
0.61428128663129633

>  <Max_SuCOS_Score>  (178) 
0

>  <Cum_SuCOS_Score>  (178) 
0

>  <TransFSScore_50nM>  (178) 
0.0064289999999999998

>  <TransFSScore_1uM>  (178) 
0.048916000000000001

>  <TransFSScore_10nM>  (178) 
0.0286

>  <TransFSScore_200nM>  (178) 
0.162276

>  <TransFSScore>  (178) 
0.061555249999999999

>  <FeatureSteinScore>  (178) 
0.59228675849586221

>  <XCos_RefMols>  (178) 
x1392_0,x0387_0,x1385_0

>  <XCos_NumHits>  (178) 
3

>  <XCos_Score1>  (178) 
12.0522

>  <XCos_Score2>  (178) 
0.2043

>  <XCos_Score3>  (178) 
0.0169

$$$$
C#CC1(O)CCN(Cc2cncs2)CC1
     RDKit          3D

 15 16  0  0  0  0  0  0  0  0999 V2000
    8.2994   -5.9464   27.7481 C   0  0  0  0  0  0  0  0  0  0  0  0
    8.7655   -5.6157   26.6862 C   0  0  0  0  0  0  0  0  0  0  0  0
    9.3378   -5.2099   25.3828 C   0  0  0  0  0  0  0  0  0  0  0  0
    9.6709   -6.3683   24.6581 O   0  0  0  0  0  0  0  0  0  0  0  0
    8.2518   -4.4610   24.6043 C   0  0  0  0  0  0  0  0  0  0  0  0
    8.8020   -3.7472   23.3683 C   0  0  0  0  0  0  0  0  0  0  0  0
   10.0376   -2.9657   23.6381 N   0  0  0  0  0  0  0  0  0  0  0  0
   10.2510   -1.7104   22.8895 C   0  0  0  0  0  0  0  0  0  0  0  0
   11.6560   -1.2012   22.8668 C   0  0  0  0  0  0  0  0  0  0  0  0
   12.1759   -0.1837   23.6592 C   0  0  0  0  0  0  0  0  0  0  0  0
   13.4997    0.0537   23.4633 N   0  0  0  0  0  0  0  0  0  0  0  0
   14.0501   -0.7577   22.5337 C   0  0  0  0  0  0  0  0  0  0  0  0
   12.8993   -1.8164   21.9120 S   0  0  0  0  0  0  0  0  0  0  0  0
   10.4484   -2.9012   25.0505 C   0  0  0  0  0  0  0  0  0  0  0  0
   10.5993   -4.3291   25.6061 C   0  0  0  0  0  0  0  0  0  0  0  0
  1  2  3  0
  2  3  1  0
  3  4  1  0
  3  5  1  0
  5  6  1  0
  6  7  1  0
  7  8  1  0
  7 14  1  0
  8  9  1  0
  9 10  2  0
 10 11  1  0
 11 12  2  0
 12 13  1  0
 13  9  1  0
 14 15  1  0
 15  3  1  0
M  END
>  <Hit>  (179) 
Mpro-x0387_0

>  <Receptor>  (179) 
Mpro-x0387_0

>  <SCORE>  (179) 
-12.383100000000001

>  <SCORE.norm>  (179) 
-0.82554300000000003

>  <SCORE.heavy>  (179) 
15

>  <OrigSmiles>  (179) 
C#CC1(O)CCN(Cc2cncs2)CC1

>  <SuCOS_Score>  (179) 
0.54615571869336266

>  <Max_SuCOS_Score>  (179) 
0

>  <Cum_SuCOS_Score>  (179) 
0

>  <TransFSScore_50nM>  (179) 
0.0055970000000000004

>  <TransFSScore_1uM>  (179) 
0.038657999999999998

>  <TransFSScore_10nM>  (179) 
0.016754999999999999

>  <TransFSScore_200nM>  (179) 
0.15483

>  <TransFSScore>  (179) 
0.053959999999999994

>  <FeatureSteinScore>  (179) 
0.51140088906046133

>  <XCos_RefMols>  (179) 
x1392_0,x0387_0,x1385_0

>  <XCos_NumHits>  (179) 
3

>  <XCos_Score1>  (179) 
11.5139

>  <XCos_Score2>  (179) 
0.0651

>  <XCos_Score3>  (179) 
0.0056

$$$$
C#CC1(O)CCN(Cc2cncs2)CC1
     RDKit          3D

 15 16  0  0  0  0  0  0  0  0999 V2000
    8.3192   -6.0025   27.7464 C   0  0  0  0  0  0  0  0  0  0  0  0
    8.7726   -5.6576   26.6836 C   0  0  0  0  0  0  0  0  0  0  0  0
    9.3290   -5.2341   25.3789 C   0  0  0  0  0  0  0  0  0  0  0  0
    9.6558   -6.3826   24.6358 O   0  0  0  0  0  0  0  0  0  0  0  0
    8.2327   -4.4776   24.6226 C   0  0  0  0  0  0  0  0  0  0  0  0
    8.7672   -3.7471   23.3895 C   0  0  0  0  0  0  0  0  0  0  0  0
   10.0044   -2.9666   23.6549 N   0  0  0  0  0  0  0  0  0  0  0  0
   10.2068   -1.7016   22.9198 C   0  0  0  0  0  0  0  0  0  0  0  0
   11.6102   -1.1883   22.8889 C   0  0  0  0  0  0  0  0  0  0  0  0
   12.1374   -0.1839   23.6931 C   0  0  0  0  0  0  0  0  0  0  0  0
   13.4580    0.0605   23.4851 N   0  0  0  0  0  0  0  0  0  0  0  0
   13.9988   -0.7325   22.5342 C   0  0  0  0  0  0  0  0  0  0  0  0
   12.8430   -1.7828   21.9077 S   0  0  0  0  0  0  0  0  0  0  0  0
   10.4314   -2.9192   25.0630 C   0  0  0  0  0  0  0  0  0  0  0  0
   10.5914   -4.3537   25.5987 C   0  0  0  0  0  0  0  0  0  0  0  0
  1  2  3  0
  2  3  1  0
  3  4  1  0
  3  5  1  0
  5  6  1  0
  6  7  1  0
  7  8  1  0
  7 14  1  0
  8  9  1  0
  9 10  2  0
 10 11  1  0
 11 12  2  0
 12 13  1  0
 13  9  1  0
 14 15  1  0
 15  3  1  0
M  END
>  <Hit>  (180) 
Mpro-x0387_0

>  <Receptor>  (180) 
Mpro-x0387_0

>  <SCORE>  (180) 
-12.409700000000001

>  <SCORE.norm>  (180) 
-0.82731600000000005

>  <SCORE.heavy>  (180) 
15

>  <OrigSmiles>  (180) 
C#CC1(O)CCN(Cc2cncs2)CC1

>  <SuCOS_Score>  (180) 
0.55574335926633633

>  <Max_SuCOS_Score>  (180) 
0

>  <Cum_SuCOS_Score>  (180) 
0

>  <TransFSScore_50nM>  (180) 
0.0057710000000000001

>  <TransFSScore_1uM>  (180) 
0.038101000000000003

>  <TransFSScore_10nM>  (180) 
0.017444999999999999

>  <TransFSScore_200nM>  (180) 
0.155253

>  <TransFSScore>  (180) 
0.054142499999999996

>  <FeatureSteinScore>  (180) 
0.51611859867842858

>  <XCos_RefMols>  (180) 
x1392_0,x0387_0,x1385_0

>  <XCos_NumHits>  (180) 
3

>  <XCos_Score1>  (180) 
11.5841

>  <XCos_Score2>  (180) 
0.1309

>  <XCos_Score3>  (180) 
0.0113

$$$$
C#CC1(O)CCN(Cc2cncs2)CC1
     RDKit          3D

 15 16  0  0  0  0  0  0  0  0999 V2000
    8.3240   -5.9916   27.7611 C   0  0  0  0  0  0  0  0  0  0  0  0
    8.7802   -5.6493   26.6986 C   0  0  0  0  0  0  0  0  0  0  0  0
    9.3402   -5.2292   25.3943 C   0  0  0  0  0  0  0  0  0  0  0  0
    9.6626   -6.3797   24.6524 O   0  0  0  0  0  0  0  0  0  0  0  0
    8.2485   -4.4681   24.6362 C   0  0  0  0  0  0  0  0  0  0  0  0
    8.7880   -3.7409   23.4033 C   0  0  0  0  0  0  0  0  0  0  0  0
   10.0285   -2.9660   23.6698 N   0  0  0  0  0  0  0  0  0  0  0  0
   10.2377   -1.7024   22.9342 C   0  0  0  0  0  0  0  0  0  0  0  0
   11.6453   -1.2012   22.8959 C   0  0  0  0  0  0  0  0  0  0  0  0
   12.1828   -0.1947   23.6905 C   0  0  0  0  0  0  0  0  0  0  0  0
   13.5049    0.0369   23.4776 N   0  0  0  0  0  0  0  0  0  0  0  0
   14.0369   -0.7685   22.5321 C   0  0  0  0  0  0  0  0  0  0  0  0
   12.8708   -1.8142   21.9169 S   0  0  0  0  0  0  0  0  0  0  0  0
   10.4539   -2.9197   25.0785 C   0  0  0  0  0  0  0  0  0  0  0  0
   10.6065   -4.3546   25.6153 C   0  0  0  0  0  0  0  0  0  0  0  0
  1  2  3  0
  2  3  1  0
  3  4  1  0
  3  5  1  0
  5  6  1  0
  6  7  1  0
  7  8  1  0
  7 14  1  0
  8  9  1  0
  9 10  2  0
 10 11  1  0
 11 12  2  0
 12 13  1  0
 13  9  1  0
 14 15  1  0
 15  3  1  0
M  END
>  <Hit>  (181) 
Mpro-x0387_0

>  <Receptor>  (181) 
Mpro-x0387_0

>  <SCORE>  (181) 
-12.4122

>  <SCORE.norm>  (181) 
-0.82747999999999999

>  <SCORE.heavy>  (181) 
15

>  <OrigSmiles>  (181) 
C#CC1(O)CCN(Cc2cncs2)CC1

>  <SuCOS_Score>  (181) 
0.55346478432182211

>  <Max_SuCOS_Score>  (181) 
0

>  <Cum_SuCOS_Score>  (181) 
0

>  <TransFSScore_50nM>  (181) 
0.005953

>  <TransFSScore_1uM>  (181) 
0.037703

>  <TransFSScore_10nM>  (181) 
0.016279999999999999

>  <TransFSScore_200nM>  (181) 
0.15912200000000001

>  <TransFSScore>  (181) 
0.054764500000000008

>  <FeatureSteinScore>  (181) 
0.51313932403156526

>  <XCos_RefMols>  (181) 
x1392_0,x0387_0,x1385_0

>  <XCos_NumHits>  (181) 
3

>  <XCos_Score1>  (181) 
11.5393

>  <XCos_Score2>  (181) 
0.0652

>  <XCos_Score3>  (181) 
0.0056

$$$$
C#CC1(O)CCN(Cc2cnns2)CC1
     RDKit          3D

 15 16  0  0  0  0  0  0  0  0999 V2000
   10.5700   -5.2141   25.1170 C   0  0  0  0  0  0  0  0  0  0  0  0
    9.6896   -4.3931   25.2062 C   0  0  0  0  0  0  0  0  0  0  0  0
    8.5984   -3.3893   25.3345 C   0  0  0  0  0  0  0  0  0  0  0  0
    7.9663   -3.8914   26.4311 O   0  0  0  0  0  0  0  0  0  0  0  0
    7.7066   -3.3971   24.1023 C   0  0  0  0  0  0  0  0  0  0  0  0
    8.6086   -3.2599   22.8788 C   0  0  0  0  0  0  0  0  0  0  0  0
    9.7928   -2.3891   23.1042 N   0  0  0  0  0  0  0  0  0  0  0  0
   10.4474   -1.8620   21.9031 C   0  0  0  0  0  0  0  0  0  0  0  0
   11.7869   -1.2408   22.1359 C   0  0  0  0  0  0  0  0  0  0  0  0
   13.0264   -1.7208   21.7228 C   0  0  0  0  0  0  0  0  0  0  0  0
   14.0883   -0.9376   22.0814 N   0  0  0  0  0  0  0  0  0  0  0  0
   13.7680    0.1559   22.7694 N   0  0  0  0  0  0  0  0  0  0  0  0
   12.1186    0.1761   22.9522 S   0  0  0  0  0  0  0  0  0  0  0  0
    9.5886   -1.3535   24.1436 C   0  0  0  0  0  0  0  0  0  0  0  0
    9.2107   -1.9854   25.5136 C   0  0  0  0  0  0  0  0  0  0  0  0
  1  2  3  0
  2  3  1  0
  3  4  1  0
  3  5  1  0
  5  6  1  0
  6  7  1  0
  7  8  1  0
  7 14  1  0
  8  9  1  0
  9 10  2  0
 10 11  1  0
 11 12  2  0
 12 13  1  0
 13  9  1  0
 14 15  1  0
 15  3  1  0
M  END
>  <Hit>  (182) 
Mpro-x0387_0

>  <Receptor>  (182) 
Mpro-x0874_0

>  <SCORE>  (182) 
-11.4655

>  <SCORE.norm>  (182) 
-0.76436899999999997

>  <SCORE.heavy>  (182) 
15

>  <OrigSmiles>  (182) 
C#CC1(O)CCN(Cc2cnns2)CC1

>  <SuCOS_Score>  (182) 
0.4133632428809742

>  <Max_SuCOS_Score>  (182) 
0

>  <Cum_SuCOS_Score>  (182) 
0

>  <TransFSScore_50nM>  (182) 
0.0011950000000000001

>  <TransFSScore_1uM>  (182) 
0.031330999999999998

>  <TransFSScore_10nM>  (182) 
0.17208699999999999

>  <TransFSScore_200nM>  (182) 
0.13998099999999999

>  <TransFSScore>  (182) 
0.086148499999999989

>  <FeatureSteinScore>  (182) 
0.56708093453227759

>  <XCos_RefMols>  (182) 
x1392_0

>  <XCos_NumHits>  (182) 
1

>  <XCos_Score1>  (182) 
9.8969

>  <XCos_Score2>  (182) 
0.2237

>  <XCos_Score3>  (182) 
0.0226

$$$$
C#CC1(O)CCN(Cc2cnns2)CC1
     RDKit          3D

 15 16  0  0  0  0  0  0  0  0999 V2000
    9.4819   -0.5767   26.1243 C   0  0  0  0  0  0  0  0  0  0  0  0
    9.1221   -1.6304   25.6579 C   0  0  0  0  0  0  0  0  0  0  0  0
    8.6628   -2.9299   25.0965 C   0  0  0  0  0  0  0  0  0  0  0  0
    8.0402   -3.4362   26.1967 O   0  0  0  0  0  0  0  0  0  0  0  0
    9.8459   -3.7814   24.6619 C   0  0  0  0  0  0  0  0  0  0  0  0
   10.7211   -2.9250   23.7508 C   0  0  0  0  0  0  0  0  0  0  0  0
    9.9509   -1.9838   22.8950 N   0  0  0  0  0  0  0  0  0  0  0  0
   10.6488   -1.4605   21.7168 C   0  0  0  0  0  0  0  0  0  0  0  0
   11.9922   -0.8655   21.9920 C   0  0  0  0  0  0  0  0  0  0  0  0
   13.1950   -1.1596   21.3562 C   0  0  0  0  0  0  0  0  0  0  0  0
   14.2712   -0.4554   21.8206 N   0  0  0  0  0  0  0  0  0  0  0  0
   13.9977    0.3958   22.8067 N   0  0  0  0  0  0  0  0  0  0  0  0
   12.3736    0.2914   23.1321 S   0  0  0  0  0  0  0  0  0  0  0  0
    8.5751   -2.4388   22.5877 C   0  0  0  0  0  0  0  0  0  0  0  0
    7.7468   -2.6702   23.8836 C   0  0  0  0  0  0  0  0  0  0  0  0
  1  2  3  0
  2  3  1  0
  3  4  1  0
  3  5  1  0
  5  6  1  0
  6  7  1  0
  7  8  1  0
  7 14  1  0
  8  9  1  0
  9 10  2  0
 10 11  1  0
 11 12  2  0
 12 13  1  0
 13  9  1  0
 14 15  1  0
 15  3  1  0
M  END
>  <Hit>  (183) 
Mpro-x0387_0

>  <Receptor>  (183) 
Mpro-x0874_0

>  <SCORE>  (183) 
-11.99

>  <SCORE.norm>  (183) 
-0.79933100000000001

>  <SCORE.heavy>  (183) 
15

>  <OrigSmiles>  (183) 
C#CC1(O)CCN(Cc2cnns2)CC1

>  <SuCOS_Score>  (183) 
0.33662807386667187

>  <Max_SuCOS_Score>  (183) 
0

>  <Cum_SuCOS_Score>  (183) 
0

>  <TransFSScore_50nM>  (183) 
0.006888

>  <TransFSScore_1uM>  (183) 
0.035644000000000002

>  <TransFSScore_10nM>  (183) 
0.1084

>  <TransFSScore_200nM>  (183) 
0.114326

>  <TransFSScore>  (183) 
0.066314499999999998

>  <FeatureSteinScore>  (183) 
0.35654346943468168

>  <XCos_RefMols>  (183) 
x0967_0

>  <XCos_NumHits>  (183) 
1

>  <XCos_Score1>  (183) 
9.2420

>  <XCos_Score2>  (183) 
0.2089

>  <XCos_Score3>  (183) 
0.0226

$$$$
C#CC1(O)CCN(Cc2cnns2)CC1
     RDKit          3D

 15 16  0  0  0  0  0  0  0  0999 V2000
    9.1656   -0.8273   26.2330 C   0  0  0  0  0  0  0  0  0  0  0  0
    8.8806   -1.9317   25.8380 C   0  0  0  0  0  0  0  0  0  0  0  0
    8.5125   -3.2854   25.3411 C   0  0  0  0  0  0  0  0  0  0  0  0
    7.9515   -3.7899   26.4745 O   0  0  0  0  0  0  0  0  0  0  0  0
    9.7494   -4.0621   24.9164 C   0  0  0  0  0  0  0  0  0  0  0  0
   10.5386   -3.1818   23.9513 C   0  0  0  0  0  0  0  0  0  0  0  0
    9.6825   -2.3396   23.0743 N   0  0  0  0  0  0  0  0  0  0  0  0
   10.3156   -1.8143   21.8608 C   0  0  0  0  0  0  0  0  0  0  0  0
   11.5612   -1.0207   22.0922 C   0  0  0  0  0  0  0  0  0  0  0  0
   12.7926   -1.1588   21.4486 C   0  0  0  0  0  0  0  0  0  0  0  0
   13.7521   -0.2869   21.8806 N   0  0  0  0  0  0  0  0  0  0  0  0
   13.3515    0.5443   22.8369 N   0  0  0  0  0  0  0  0  0  0  0  0
   11.7636    0.2248   23.1911 S   0  0  0  0  0  0  0  0  0  0  0  0
    8.3403   -2.9109   22.8164 C   0  0  0  0  0  0  0  0  0  0  0  0
    7.5567   -3.1489   24.1387 C   0  0  0  0  0  0  0  0  0  0  0  0
  1  2  3  0
  2  3  1  0
  3  4  1  0
  3  5  1  0
  5  6  1  0
  6  7  1  0
  7  8  1  0
  7 14  1  0
  8  9  1  0
  9 10  2  0
 10 11  1  0
 11 12  2  0
 12 13  1  0
 13  9  1  0
 14 15  1  0
 15  3  1  0
M  END
>  <Hit>  (184) 
Mpro-x0387_0

>  <Receptor>  (184) 
Mpro-x0874_0

>  <SCORE>  (184) 
-12.037800000000001

>  <SCORE.norm>  (184) 
-0.80252100000000004

>  <SCORE.heavy>  (184) 
15

>  <OrigSmiles>  (184) 
C#CC1(O)CCN(Cc2cnns2)CC1

>  <SuCOS_Score>  (184) 
0.37358823974732053

>  <Max_SuCOS_Score>  (184) 
0

>  <Cum_SuCOS_Score>  (184) 
0

>  <TransFSScore_50nM>  (184) 
0.0076319999999999999

>  <TransFSScore_1uM>  (184) 
0.036590999999999999

>  <TransFSScore_10nM>  (184) 
0.053650999999999997

>  <TransFSScore_200nM>  (184) 
0.118328

>  <TransFSScore>  (184) 
0.054050500000000001

>  <FeatureSteinScore>  (184) 
0.4227579393859856

>  <XCos_RefMols>  (184) 
x1392_0,x0874_0

>  <XCos_NumHits>  (184) 
2

>  <XCos_Score1>  (184) 
9.4407

>  <XCos_Score2>  (184) 
0.1067

>  <XCos_Score3>  (184) 
0.0113

$$$$
C#CC1(O)CCN(Cc2cnns2)CC1
     RDKit          3D

 15 16  0  0  0  0  0  0  0  0999 V2000
   10.4369   -5.7513   25.8931 C   0  0  0  0  0  0  0  0  0  0  0  0
    9.4161   -5.1268   26.0474 C   0  0  0  0  0  0  0  0  0  0  0  0
    8.1513   -4.3490   26.2290 C   0  0  0  0  0  0  0  0  0  0  0  0
    7.5505   -5.0187   27.2626 O   0  0  0  0  0  0  0  0  0  0  0  0
    7.2488   -4.3848   25.0103 C   0  0  0  0  0  0  0  0  0  0  0  0
    8.1386   -4.1597   23.8240 C   0  0  0  0  0  0  0  0  0  0  0  0
    8.8569   -2.8707   23.9085 N   0  0  0  0  0  0  0  0  0  0  0  0
    9.9782   -2.8605   22.9762 C   0  0  0  0  0  0  0  0  0  0  0  0
   10.0802   -1.5055   22.3540 C   0  0  0  0  0  0  0  0  0  0  0  0
   10.9857   -0.4936   22.6739 C   0  0  0  0  0  0  0  0  0  0  0  0
   10.8293    0.6502   21.9428 N   0  0  0  0  0  0  0  0  0  0  0  0
    9.8427    0.6054   21.0536 N   0  0  0  0  0  0  0  0  0  0  0  0
    9.1122   -0.8806   21.1411 S   0  0  0  0  0  0  0  0  0  0  0  0
    9.2398   -2.3022   25.2318 C   0  0  0  0  0  0  0  0  0  0  0  0
    8.5402   -2.9024   26.4747 C   0  0  0  0  0  0  0  0  0  0  0  0
  1  2  3  0
  2  3  1  0
  3  4  1  0
  3  5  1  0
  5  6  1  0
  6  7  1  0
  7  8  1  0
  7 14  1  0
  8  9  1  0
  9 10  2  0
 10 11  1  0
 11 12  2  0
 12 13  1  0
 13  9  1  0
 14 15  1  0
 15  3  1  0
M  END
>  <Hit>  (185) 
Mpro-x0387_0

>  <Receptor>  (185) 
Mpro-x0874_0

>  <SCORE>  (185) 
-12.2562

>  <SCORE.norm>  (185) 
-0.81707799999999997

>  <SCORE.heavy>  (185) 
15

>  <OrigSmiles>  (185) 
C#CC1(O)CCN(Cc2cnns2)CC1

>  <SuCOS_Score>  (185) 
0.35409432688323983

>  <Max_SuCOS_Score>  (185) 
0

>  <Cum_SuCOS_Score>  (185) 
0

>  <TransFSScore_50nM>  (185) 
0.0011770000000000001

>  <TransFSScore_1uM>  (185) 
0.02989

>  <TransFSScore_10nM>  (185) 
0.016237000000000001

>  <TransFSScore_200nM>  (185) 
0.042691

>  <TransFSScore>  (185) 
0.022498749999999998

>  <FeatureSteinScore>  (185) 
0.43304182807861125

>  <XCos_RefMols>  (185) 
x1392_0,x0967_0

>  <XCos_NumHits>  (185) 
2

>  <XCos_Score1>  (185) 
9.4314

>  <XCos_Score2>  (185) 
0.0533

>  <XCos_Score3>  (185) 
0.0056

$$$$
C#CC1(O)CCN(Cc2cnns2)CC1
     RDKit          3D

 15 16  0  0  0  0  0  0  0  0999 V2000
    8.5862   -2.9331   27.5875 C   0  0  0  0  0  0  0  0  0  0  0  0
    8.6593   -4.0165   27.0603 C   0  0  0  0  0  0  0  0  0  0  0  0
    8.7692   -5.3540   26.4169 C   0  0  0  0  0  0  0  0  0  0  0  0
    8.4725   -6.1384   27.4896 O   0  0  0  0  0  0  0  0  0  0  0  0
   10.1800   -5.5935   25.9015 C   0  0  0  0  0  0  0  0  0  0  0  0
   10.5652   -4.3963   25.0369 C   0  0  0  0  0  0  0  0  0  0  0  0
    9.4294   -3.8269   24.2643 N   0  0  0  0  0  0  0  0  0  0  0  0
    9.7825   -2.9895   23.1139 C   0  0  0  0  0  0  0  0  0  0  0  0
   10.6407   -1.8079   23.4338 C   0  0  0  0  0  0  0  0  0  0  0  0
   10.4080   -0.8188   24.3915 C   0  0  0  0  0  0  0  0  0  0  0  0
   11.3759    0.1442   24.4499 N   0  0  0  0  0  0  0  0  0  0  0  0
   12.3735   -0.0239   23.5883 N   0  0  0  0  0  0  0  0  0  0  0  0
   12.0894   -1.3974   22.7041 S   0  0  0  0  0  0  0  0  0  0  0  0
    8.3639   -4.8072   23.9510 C   0  0  0  0  0  0  0  0  0  0  0  0
    7.7738   -5.4422   25.2423 C   0  0  0  0  0  0  0  0  0  0  0  0
  1  2  3  0
  2  3  1  0
  3  4  1  0
  3  5  1  0
  5  6  1  0
  6  7  1  0
  7  8  1  0
  7 14  1  0
  8  9  1  0
  9 10  2  0
 10 11  1  0
 11 12  2  0
 12 13  1  0
 13  9  1  0
 14 15  1  0
 15  3  1  0
M  END
>  <Hit>  (186) 
Mpro-x0387_0

>  <Receptor>  (186) 
Mpro-x0305_0

>  <SCORE>  (186) 
-12.3239

>  <SCORE.norm>  (186) 
-0.82159400000000005

>  <SCORE.heavy>  (186) 
15

>  <OrigSmiles>  (186) 
C#CC1(O)CCN(Cc2cnns2)CC1

>  <SuCOS_Score>  (186) 
0.5060974453441317

>  <Max_SuCOS_Score>  (186) 
0

>  <Cum_SuCOS_Score>  (186) 
0

>  <TransFSScore_50nM>  (186) 
0.0072090000000000001

>  <TransFSScore_1uM>  (186) 
0.024701000000000001

>  <TransFSScore_10nM>  (186) 
0.076293

>  <TransFSScore_200nM>  (186) 
0.15890299999999999

>  <TransFSScore>  (186) 
0.066776499999999989

>  <FeatureSteinScore>  (186) 
0.33011804380830106

>  <XCos_RefMols>  (186) 
x1392_0,x0305_0

>  <XCos_NumHits>  (186) 
2

>  <XCos_Score1>  (186) 
10.3713

>  <XCos_Score2>  (186) 
0.1758

>  <XCos_Score3>  (186) 
0.0169

$$$$
C#CC1(O)CCN(Cc2cnns2)CC1
     RDKit          3D

 15 16  0  0  0  0  0  0  0  0999 V2000
    8.4924   -2.9332   27.6087 C   0  0  0  0  0  0  0  0  0  0  0  0
    8.5959   -4.0157   27.0847 C   0  0  0  0  0  0  0  0  0  0  0  0
    8.7140   -5.3429   26.4217 C   0  0  0  0  0  0  0  0  0  0  0  0
    8.4299   -6.1451   27.4847 O   0  0  0  0  0  0  0  0  0  0  0  0
   10.1241   -5.5628   25.8957 C   0  0  0  0  0  0  0  0  0  0  0  0
   10.4944   -4.3501   25.0463 C   0  0  0  0  0  0  0  0  0  0  0  0
    9.3496   -3.7797   24.2877 N   0  0  0  0  0  0  0  0  0  0  0  0
    9.6894   -2.9230   23.1476 C   0  0  0  0  0  0  0  0  0  0  0  0
   10.5683   -1.7585   23.4736 C   0  0  0  0  0  0  0  0  0  0  0  0
   10.3988   -0.8213   24.4947 C   0  0  0  0  0  0  0  0  0  0  0  0
   11.3702    0.1389   24.5417 N   0  0  0  0  0  0  0  0  0  0  0  0
   12.3107    0.0176   23.6108 N   0  0  0  0  0  0  0  0  0  0  0  0
   11.9684   -1.3082   22.6759 S   0  0  0  0  0  0  0  0  0  0  0  0
    8.2910   -4.7648   23.9660 C   0  0  0  0  0  0  0  0  0  0  0  0
    7.7133   -5.4232   25.2512 C   0  0  0  0  0  0  0  0  0  0  0  0
  1  2  3  0
  2  3  1  0
  3  4  1  0
  3  5  1  0
  5  6  1  0
  6  7  1  0
  7  8  1  0
  7 14  1  0
  8  9  1  0
  9 10  2  0
 10 11  1  0
 11 12  2  0
 12 13  1  0
 13  9  1  0
 14 15  1  0
 15  3  1  0
M  END
>  <Hit>  (187) 
Mpro-x0387_0

>  <Receptor>  (187) 
Mpro-x0305_0

>  <SCORE>  (187) 
-12.3308

>  <SCORE.norm>  (187) 
-0.822052

>  <SCORE.heavy>  (187) 
15

>  <OrigSmiles>  (187) 
C#CC1(O)CCN(Cc2cnns2)CC1

>  <SuCOS_Score>  (187) 
0.50151459807739718

>  <Max_SuCOS_Score>  (187) 
0

>  <Cum_SuCOS_Score>  (187) 
0

>  <TransFSScore_50nM>  (187) 
0.0075799999999999999

>  <TransFSScore_1uM>  (187) 
0.025923999999999999

>  <TransFSScore_10nM>  (187) 
0.074528999999999998

>  <TransFSScore_200nM>  (187) 
0.14202899999999999

>  <TransFSScore>  (187) 
0.062515500000000002

>  <FeatureSteinScore>  (187) 
0.33748552763640455

>  <XCos_RefMols>  (187) 
x1392_0,x0305_0

>  <XCos_NumHits>  (187) 
2

>  <XCos_Score1>  (187) 
10.5977

>  <XCos_Score2>  (187) 
0.1796

>  <XCos_Score3>  (187) 
0.0169

$$$$
C#CC1(O)CCN(Cc2cnns2)CC1
     RDKit          3D

 15 16  0  0  0  0  0  0  0  0999 V2000
    8.5479   -2.9236   27.5394 C   0  0  0  0  0  0  0  0  0  0  0  0
    8.6322   -4.0096   27.0193 C   0  0  0  0  0  0  0  0  0  0  0  0
    8.7543   -5.3430   26.3695 C   0  0  0  0  0  0  0  0  0  0  0  0
    8.4843   -6.1357   27.4432 O   0  0  0  0  0  0  0  0  0  0  0  0
   10.1617   -5.5587   25.8345 C   0  0  0  0  0  0  0  0  0  0  0  0
   10.5167   -4.3527   24.9693 C   0  0  0  0  0  0  0  0  0  0  0  0
    9.3619   -3.7984   24.2139 N   0  0  0  0  0  0  0  0  0  0  0  0
    9.6866   -2.9516   23.0620 C   0  0  0  0  0  0  0  0  0  0  0  0
   10.5540   -1.7736   23.3699 C   0  0  0  0  0  0  0  0  0  0  0  0
   10.3512   -0.7970   24.3471 C   0  0  0  0  0  0  0  0  0  0  0  0
   11.3201    0.1659   24.3873 N   0  0  0  0  0  0  0  0  0  0  0  0
   12.2902    0.0096   23.4926 N   0  0  0  0  0  0  0  0  0  0  0  0
   11.9789   -1.3527   22.6004 S   0  0  0  0  0  0  0  0  0  0  0  0
    8.3078   -4.7941   23.9112 C   0  0  0  0  0  0  0  0  0  0  0  0
    7.7449   -5.4428   25.2080 C   0  0  0  0  0  0  0  0  0  0  0  0
  1  2  3  0
  2  3  1  0
  3  4  1  0
  3  5  1  0
  5  6  1  0
  6  7  1  0
  7  8  1  0
  7 14  1  0
  8  9  1  0
  9 10  2  0
 10 11  1  0
 11 12  2  0
 12 13  1  0
 13  9  1  0
 14 15  1  0
 15  3  1  0
M  END
>  <Hit>  (188) 
Mpro-x0387_0

>  <Receptor>  (188) 
Mpro-x0305_0

>  <SCORE>  (188) 
-12.3576

>  <SCORE.norm>  (188) 
-0.82384199999999996

>  <SCORE.heavy>  (188) 
15

>  <OrigSmiles>  (188) 
C#CC1(O)CCN(Cc2cnns2)CC1

>  <SuCOS_Score>  (188) 
0.49661130206161413

>  <Max_SuCOS_Score>  (188) 
0

>  <Cum_SuCOS_Score>  (188) 
0

>  <TransFSScore_50nM>  (188) 
0.0085089999999999992

>  <TransFSScore_1uM>  (188) 
0.023311999999999999

>  <TransFSScore_10nM>  (188) 
0.080147999999999997

>  <TransFSScore_200nM>  (188) 
0.14890400000000001

>  <TransFSScore>  (188) 
0.065218250000000005

>  <FeatureSteinScore>  (188) 
0.33835661260785377

>  <XCos_RefMols>  (188) 
x1392_0,x0305_0

>  <XCos_NumHits>  (188) 
2

>  <XCos_Score1>  (188) 
10.6274

>  <XCos_Score2>  (188) 
0.1801

>  <XCos_Score3>  (188) 
0.0169

$$$$
C#CC1(O)CCN(Cc2cnns2)CC1
     RDKit          3D

 15 16  0  0  0  0  0  0  0  0999 V2000
   10.6923   -5.0131   25.0519 C   0  0  0  0  0  0  0  0  0  0  0  0
    9.7296   -4.2894   25.1323 C   0  0  0  0  0  0  0  0  0  0  0  0
    8.5399   -3.3987   25.2107 C   0  0  0  0  0  0  0  0  0  0  0  0
    7.9210   -3.9540   26.2890 O   0  0  0  0  0  0  0  0  0  0  0  0
    7.6994   -3.5039   23.9474 C   0  0  0  0  0  0  0  0  0  0  0  0
    8.6274   -3.2850   22.7558 C   0  0  0  0  0  0  0  0  0  0  0  0
    9.7100   -2.2988   23.0146 N   0  0  0  0  0  0  0  0  0  0  0  0
   10.3539   -1.7175   21.8328 C   0  0  0  0  0  0  0  0  0  0  0  0
   11.6026   -0.9440   22.1114 C   0  0  0  0  0  0  0  0  0  0  0  0
   11.7080    0.3452   22.6375 C   0  0  0  0  0  0  0  0  0  0  0  0
   12.9923    0.7915   22.7750 N   0  0  0  0  0  0  0  0  0  0  0  0
   13.9218   -0.0755   22.3872 N   0  0  0  0  0  0  0  0  0  0  0  0
   13.1744   -1.4539   21.8485 S   0  0  0  0  0  0  0  0  0  0  0  0
    9.3655   -1.2819   24.0352 C   0  0  0  0  0  0  0  0  0  0  0  0
    9.0022   -1.9393   25.3972 C   0  0  0  0  0  0  0  0  0  0  0  0
  1  2  3  0
  2  3  1  0
  3  4  1  0
  3  5  1  0
  5  6  1  0
  6  7  1  0
  7  8  1  0
  7 14  1  0
  8  9  1  0
  9 10  2  0
 10 11  1  0
 11 12  2  0
 12 13  1  0
 13  9  1  0
 14 15  1  0
 15  3  1  0
M  END
>  <Hit>  (189) 
Mpro-x0387_0

>  <Receptor>  (189) 
Mpro-x1249_0

>  <SCORE>  (189) 
-12.450900000000001

>  <SCORE.norm>  (189) 
-0.830063

>  <SCORE.heavy>  (189) 
15

>  <OrigSmiles>  (189) 
C#CC1(O)CCN(Cc2cnns2)CC1

>  <SuCOS_Score>  (189) 
0.38917629738270459

>  <Max_SuCOS_Score>  (189) 
0

>  <Cum_SuCOS_Score>  (189) 
0

>  <TransFSScore_50nM>  (189) 
0.00070899999999999999

>  <TransFSScore_1uM>  (189) 
0.024924000000000002

>  <TransFSScore_10nM>  (189) 
0.27166899999999999

>  <TransFSScore_200nM>  (189) 
0.054357999999999997

>  <TransFSScore>  (189) 
0.087915000000000007

>  <FeatureSteinScore>  (189) 
0.51932353282265187

>  <XCos_RefMols>  (189) 
x1392_0,x0874_0

>  <XCos_NumHits>  (189) 
2

>  <XCos_Score1>  (189) 
10.0863

>  <XCos_Score2>  (189) 
0.0570

>  <XCos_Score3>  (189) 
0.0056

$$$$
C#CC1(O)CCN(Cc2cnns2)CC1
     RDKit          3D

 15 16  0  0  0  0  0  0  0  0999 V2000
    7.7308   -4.4483   22.1118 C   0  0  0  0  0  0  0  0  0  0  0  0
    8.0800   -4.0960   23.2117 C   0  0  0  0  0  0  0  0  0  0  0  0
    8.5110   -3.6496   24.5728 C   0  0  0  0  0  0  0  0  0  0  0  0
    7.6839   -4.3780   25.3872 O   0  0  0  0  0  0  0  0  0  0  0  0
    8.2841   -2.1694   24.8148 C   0  0  0  0  0  0  0  0  0  0  0  0
    8.7575   -1.4659   23.5775 C   0  0  0  0  0  0  0  0  0  0  0  0
   10.1825   -1.7402   23.2967 N   0  0  0  0  0  0  0  0  0  0  0  0
   10.4988   -1.3829   21.9188 C   0  0  0  0  0  0  0  0  0  0  0  0
   11.9280   -0.9523   21.8446 C   0  0  0  0  0  0  0  0  0  0  0  0
   12.8851   -1.3534   20.9122 C   0  0  0  0  0  0  0  0  0  0  0  0
   14.1206   -0.8019   21.1046 N   0  0  0  0  0  0  0  0  0  0  0  0
   14.2010    0.0205   22.1454 N   0  0  0  0  0  0  0  0  0  0  0  0
   12.7172    0.0969   22.8814 S   0  0  0  0  0  0  0  0  0  0  0  0
   10.7919   -3.0458   23.6775 C   0  0  0  0  0  0  0  0  0  0  0  0
   10.0016   -3.9140   24.6855 C   0  0  0  0  0  0  0  0  0  0  0  0
  1  2  3  0
  2  3  1  0
  3  4  1  0
  3  5  1  0
  5  6  1  0
  6  7  1  0
  7  8  1  0
  7 14  1  0
  8  9  1  0
  9 10  2  0
 10 11  1  0
 11 12  2  0
 12 13  1  0
 13  9  1  0
 14 15  1  0
 15  3  1  0
M  END
>  <Hit>  (190) 
Mpro-x0387_0

>  <Receptor>  (190) 
Mpro-x0874_0

>  <SCORE>  (190) 
-12.575100000000001

>  <SCORE.norm>  (190) 
-0.83833999999999997

>  <SCORE.heavy>  (190) 
15

>  <OrigSmiles>  (190) 
C#CC1(O)CCN(Cc2cnns2)CC1

>  <SuCOS_Score>  (190) 
0.32860253605233597

>  <Max_SuCOS_Score>  (190) 
0

>  <Cum_SuCOS_Score>  (190) 
0

>  <TransFSScore_50nM>  (190) 
0.0039309999999999996

>  <TransFSScore_1uM>  (190) 
0.027869000000000001

>  <TransFSScore_10nM>  (190) 
0.159472

>  <TransFSScore_200nM>  (190) 
0.055472

>  <TransFSScore>  (190) 
0.061685999999999998

>  <FeatureSteinScore>  (190) 
0.45409279967456279

>  <XCos_RefMols>  (190) 
x1392_0

>  <XCos_NumHits>  (190) 
1

>  <XCos_Score1>  (190) 
9.7762

>  <XCos_Score2>  (190) 
0.1657

>  <XCos_Score3>  (190) 
0.0169

$$$$
C#CC1(O)CCN(Cc2cnns2)CC1
     RDKit          3D

 15 16  0  0  0  0  0  0  0  0999 V2000
    9.1950   -1.2804   26.7458 C   0  0  0  0  0  0  0  0  0  0  0  0
    8.9372   -2.3658   26.2848 C   0  0  0  0  0  0  0  0  0  0  0  0
    8.6120   -3.6948   25.6991 C   0  0  0  0  0  0  0  0  0  0  0  0
    8.0279   -4.2753   26.7835 O   0  0  0  0  0  0  0  0  0  0  0  0
    9.8768   -4.4219   25.2687 C   0  0  0  0  0  0  0  0  0  0  0  0
   10.6761   -3.4719   24.3811 C   0  0  0  0  0  0  0  0  0  0  0  0
    9.8294   -2.5960   23.5283 N   0  0  0  0  0  0  0  0  0  0  0  0
   10.4874   -1.9889   22.3674 C   0  0  0  0  0  0  0  0  0  0  0  0
   11.6796   -1.1456   22.6878 C   0  0  0  0  0  0  0  0  0  0  0  0
   11.7976   -0.1811   23.6905 C   0  0  0  0  0  0  0  0  0  0  0  0
   13.0173    0.4335   23.7367 N   0  0  0  0  0  0  0  0  0  0  0  0
   13.8835    0.0092   22.8226 N   0  0  0  0  0  0  0  0  0  0  0  0
   13.1580   -1.1653   21.9045 S   0  0  0  0  0  0  0  0  0  0  0  0
    8.5075   -3.1765   23.1963 C   0  0  0  0  0  0  0  0  0  0  0  0
    7.6899   -3.5061   24.4776 C   0  0  0  0  0  0  0  0  0  0  0  0
  1  2  3  0
  2  3  1  0
  3  4  1  0
  3  5  1  0
  5  6  1  0
  6  7  1  0
  7  8  1  0
  7 14  1  0
  8  9  1  0
  9 10  2  0
 10 11  1  0
 11 12  2  0
 12 13  1  0
 13  9  1  0
 14 15  1  0
 15  3  1  0
M  END
>  <Hit>  (191) 
Mpro-x0387_0

>  <Receptor>  (191) 
Mpro-x0305_0

>  <SCORE>  (191) 
-12.656599999999999

>  <SCORE.norm>  (191) 
-0.84377400000000002

>  <SCORE.heavy>  (191) 
15

>  <OrigSmiles>  (191) 
C#CC1(O)CCN(Cc2cnns2)CC1

>  <SuCOS_Score>  (191) 
0.51755235082641693

>  <Max_SuCOS_Score>  (191) 
0

>  <Cum_SuCOS_Score>  (191) 
0

>  <TransFSScore_50nM>  (191) 
0.0013240000000000001

>  <TransFSScore_1uM>  (191) 
0.028319

>  <TransFSScore_10nM>  (191) 
0.176868

>  <TransFSScore_200nM>  (191) 
0.14417199999999999

>  <TransFSScore>  (191) 
0.087670749999999992

>  <FeatureSteinScore>  (191) 
0.60175598807124198

>  <XCos_RefMols>  (191) 
x1392_0,x0874_0

>  <XCos_NumHits>  (191) 
2

>  <XCos_Score1>  (191) 
9.8913

>  <XCos_Score2>  (191) 
0.2794

>  <XCos_Score3>  (191) 
0.0282

$$$$
C#CC1(O)CCN(Cc2cnoc2)CC1
     RDKit          3D

 15 16  0  0  0  0  0  0  0  0999 V2000
    8.4429   -5.7077   27.7185 C   0  0  0  0  0  0  0  0  0  0  0  0
    8.9046   -5.4051   26.6464 C   0  0  0  0  0  0  0  0  0  0  0  0
    9.4708   -5.0334   25.3298 C   0  0  0  0  0  0  0  0  0  0  0  0
    9.7751   -6.2104   24.6201 O   0  0  0  0  0  0  0  0  0  0  0  0
    8.4208   -4.2258   24.5534 C   0  0  0  0  0  0  0  0  0  0  0  0
    9.0058   -3.5588   23.3082 C   0  0  0  0  0  0  0  0  0  0  0  0
   10.2800   -2.8382   23.5689 N   0  0  0  0  0  0  0  0  0  0  0  0
   10.5526   -1.5991   22.8128 C   0  0  0  0  0  0  0  0  0  0  0  0
   11.9754   -1.1390   22.8131 C   0  0  0  0  0  0  0  0  0  0  0  0
   13.0310   -1.6875   22.1189 C   0  0  0  0  0  0  0  0  0  0  0  0
   14.1486   -0.9999   22.4211 N   0  0  0  0  0  0  0  0  0  0  0  0
   13.8118   -0.0676   23.2670 O   0  0  0  0  0  0  0  0  0  0  0  0
   12.5275   -0.1063   23.5384 C   0  0  0  0  0  0  0  0  0  0  0  0
   10.7010   -2.7883   24.9790 C   0  0  0  0  0  0  0  0  0  0  0  0
   10.7760   -4.2198   25.5435 C   0  0  0  0  0  0  0  0  0  0  0  0
  1  2  3  0
  2  3  1  0
  3  4  1  0
  3  5  1  0
  5  6  1  0
  6  7  1  0
  7  8  1  0
  7 14  1  0
  8  9  1  0
  9 10  1  0
 10 11  2  0
 11 12  1  0
 12 13  1  0
 13  9  2  0
 14 15  1  0
 15  3  1  0
M  END
>  <Hit>  (192) 
Mpro-x0387_0

>  <Receptor>  (192) 
Mpro-x0387_0

>  <SCORE>  (192) 
-10.206899999999999

>  <SCORE.norm>  (192) 
-0.68046300000000004

>  <SCORE.heavy>  (192) 
15

>  <OrigSmiles>  (192) 
C#CC1(O)CCN(Cc2cnoc2)CC1

>  <SuCOS_Score>  (192) 
0.49422604642552376

>  <Max_SuCOS_Score>  (192) 
0

>  <Cum_SuCOS_Score>  (192) 
0

>  <TransFSScore_50nM>  (192) 
0.0019059999999999999

>  <TransFSScore_1uM>  (192) 
0.030019000000000001

>  <TransFSScore_10nM>  (192) 
0.0039940000000000002

>  <TransFSScore_200nM>  (192) 
0.041680000000000002

>  <TransFSScore>  (192) 
0.01939975

>  <FeatureSteinScore>  (192) 
0.48915284848293772

>  <XCos_RefMols>  (192) 
x1392_0,x0305_0

>  <XCos_NumHits>  (192) 
2

>  <XCos_Score1>  (192) 
11.0605

>  <XCos_Score2>  (192) 
0.1875

>  <XCos_Score3>  (192) 
0.0169

$$$$
C#CC1(O)CCN(Cc2cnoc2)CC1
     RDKit          3D

 15 16  0  0  0  0  0  0  0  0999 V2000
    8.4511   -5.8078   27.7322 C   0  0  0  0  0  0  0  0  0  0  0  0
    8.8894   -5.4795   26.6578 C   0  0  0  0  0  0  0  0  0  0  0  0
    9.4271   -5.0761   25.3386 C   0  0  0  0  0  0  0  0  0  0  0  0
    9.7060   -6.2355   24.5905 O   0  0  0  0  0  0  0  0  0  0  0  0
    8.3650   -4.2408   24.6094 C   0  0  0  0  0  0  0  0  0  0  0  0
    8.9253   -3.5443   23.3690 C   0  0  0  0  0  0  0  0  0  0  0  0
   10.2105   -2.8395   23.6186 N   0  0  0  0  0  0  0  0  0  0  0  0
   10.4742   -1.5822   22.8898 C   0  0  0  0  0  0  0  0  0  0  0  0
   11.9030   -1.1430   22.8505 C   0  0  0  0  0  0  0  0  0  0  0  0
   12.9179   -1.6687   22.0818 C   0  0  0  0  0  0  0  0  0  0  0  0
   14.0588   -1.0141   22.3693 N   0  0  0  0  0  0  0  0  0  0  0  0
   13.7750   -0.1233   23.2771 O   0  0  0  0  0  0  0  0  0  0  0  0
   12.5035   -0.1582   23.6034 C   0  0  0  0  0  0  0  0  0  0  0  0
   10.6650   -2.8305   25.0191 C   0  0  0  0  0  0  0  0  0  0  0  0
   10.7429   -4.2773   25.5429 C   0  0  0  0  0  0  0  0  0  0  0  0
  1  2  3  0
  2  3  1  0
  3  4  1  0
  3  5  1  0
  5  6  1  0
  6  7  1  0
  7  8  1  0
  7 14  1  0
  8  9  1  0
  9 10  1  0
 10 11  2  0
 11 12  1  0
 12 13  1  0
 13  9  2  0
 14 15  1  0
 15  3  1  0
M  END
>  <Hit>  (193) 
Mpro-x0387_0

>  <Receptor>  (193) 
Mpro-x0387_0

>  <SCORE>  (193) 
-10.2189

>  <SCORE.norm>  (193) 
-0.681257

>  <SCORE.heavy>  (193) 
15

>  <OrigSmiles>  (193) 
C#CC1(O)CCN(Cc2cnoc2)CC1

>  <SuCOS_Score>  (193) 
0.5114128960662554

>  <Max_SuCOS_Score>  (193) 
0

>  <Cum_SuCOS_Score>  (193) 
0

>  <TransFSScore_50nM>  (193) 
0.0020460000000000001

>  <TransFSScore_1uM>  (193) 
0.028778000000000001

>  <TransFSScore_10nM>  (193) 
0.0039069999999999999

>  <TransFSScore_200nM>  (193) 
0.040995999999999998

>  <TransFSScore>  (193) 
0.018931749999999997

>  <FeatureSteinScore>  (193) 
0.50837558679722827

>  <XCos_RefMols>  (193) 
x1392_0,x0387_0

>  <XCos_NumHits>  (193) 
2

>  <XCos_Score1>  (193) 
11.1564

>  <XCos_Score2>  (193) 
0.1891

>  <XCos_Score3>  (193) 
0.0169

$$$$
C#CC1(O)CCN(Cc2cnoc2)CC1
     RDKit          3D

 15 16  0  0  0  0  0  0  0  0999 V2000
    8.3916   -5.8595   27.6518 C   0  0  0  0  0  0  0  0  0  0  0  0
    8.8465   -5.5228   26.5870 C   0  0  0  0  0  0  0  0  0  0  0  0
    9.4057   -5.1097   25.2798 C   0  0  0  0  0  0  0  0  0  0  0  0
    9.7012   -6.2636   24.5296 O   0  0  0  0  0  0  0  0  0  0  0  0
    8.3537   -4.2731   24.5374 C   0  0  0  0  0  0  0  0  0  0  0  0
    8.9332   -3.5673   23.3112 C   0  0  0  0  0  0  0  0  0  0  0  0
   10.2116   -2.8601   23.5873 N   0  0  0  0  0  0  0  0  0  0  0  0
   10.4840   -1.5975   22.8709 C   0  0  0  0  0  0  0  0  0  0  0  0
   11.9148   -1.1643   22.8414 C   0  0  0  0  0  0  0  0  0  0  0  0
   12.9426   -1.7245   22.1156 C   0  0  0  0  0  0  0  0  0  0  0  0
   14.0801   -1.0616   22.3979 N   0  0  0  0  0  0  0  0  0  0  0  0
   13.7818   -0.1329   23.2620 O   0  0  0  0  0  0  0  0  0  0  0  0
   12.5039   -0.1506   23.5644 C   0  0  0  0  0  0  0  0  0  0  0  0
   10.6418   -2.8584   24.9955 C   0  0  0  0  0  0  0  0  0  0  0  0
   10.7152   -4.3081   25.5118 C   0  0  0  0  0  0  0  0  0  0  0  0
  1  2  3  0
  2  3  1  0
  3  4  1  0
  3  5  1  0
  5  6  1  0
  6  7  1  0
  7  8  1  0
  7 14  1  0
  8  9  1  0
  9 10  1  0
 10 11  2  0
 11 12  1  0
 12 13  1  0
 13  9  2  0
 14 15  1  0
 15  3  1  0
M  END
>  <Hit>  (194) 
Mpro-x0387_0

>  <Receptor>  (194) 
Mpro-x0387_0

>  <SCORE>  (194) 
-10.2478

>  <SCORE.norm>  (194) 
-0.68318599999999996

>  <SCORE.heavy>  (194) 
15

>  <OrigSmiles>  (194) 
C#CC1(O)CCN(Cc2cnoc2)CC1

>  <SuCOS_Score>  (194) 
0.5035166417534106

>  <Max_SuCOS_Score>  (194) 
0

>  <Cum_SuCOS_Score>  (194) 
0

>  <TransFSScore_50nM>  (194) 
0.0019400000000000001

>  <TransFSScore_1uM>  (194) 
0.027687

>  <TransFSScore_10nM>  (194) 
0.0040010000000000002

>  <TransFSScore_200nM>  (194) 
0.036788000000000001

>  <TransFSScore>  (194) 
0.017604000000000002

>  <FeatureSteinScore>  (194) 
0.48642569306091443

>  <XCos_RefMols>  (194) 
x1392_0,x0387_0

>  <XCos_NumHits>  (194) 
2

>  <XCos_Score1>  (194) 
11.0858

>  <XCos_Score2>  (194) 
0.1879

>  <XCos_Score3>  (194) 
0.0169

$$$$
C#CC1(O)CCN(Cc2cnoc2)CC1
     RDKit          3D

 15 16  0  0  0  0  0  0  0  0999 V2000
    8.4427   -5.7288   27.7156 C   0  0  0  0  0  0  0  0  0  0  0  0
    8.9076   -5.4253   26.6451 C   0  0  0  0  0  0  0  0  0  0  0  0
    9.4778   -5.0524   25.3306 C   0  0  0  0  0  0  0  0  0  0  0  0
    9.7909   -6.2288   24.6237 O   0  0  0  0  0  0  0  0  0  0  0  0
    8.4273   -4.2507   24.5486 C   0  0  0  0  0  0  0  0  0  0  0  0
    9.0145   -3.5824   23.3052 C   0  0  0  0  0  0  0  0  0  0  0  0
   10.2840   -2.8553   23.5706 N   0  0  0  0  0  0  0  0  0  0  0  0
   10.5540   -1.6158   22.8142 C   0  0  0  0  0  0  0  0  0  0  0  0
   11.9756   -1.1521   22.8153 C   0  0  0  0  0  0  0  0  0  0  0  0
   13.0187   -1.6539   22.0688 C   0  0  0  0  0  0  0  0  0  0  0  0
   14.1405   -0.9825   22.3909 N   0  0  0  0  0  0  0  0  0  0  0  0
   13.8182   -0.1046   23.2983 O   0  0  0  0  0  0  0  0  0  0  0  0
   12.5395   -0.1638   23.5915 C   0  0  0  0  0  0  0  0  0  0  0  0
   10.6986   -2.8017   24.9825 C   0  0  0  0  0  0  0  0  0  0  0  0
   10.7781   -4.2323   25.5490 C   0  0  0  0  0  0  0  0  0  0  0  0
  1  2  3  0
  2  3  1  0
  3  4  1  0
  3  5  1  0
  5  6  1  0
  6  7  1  0
  7  8  1  0
  7 14  1  0
  8  9  1  0
  9 10  1  0
 10 11  2  0
 11 12  1  0
 12 13  1  0
 13  9  2  0
 14 15  1  0
 15  3  1  0
M  END
>  <Hit>  (195) 
Mpro-x0387_0

>  <Receptor>  (195) 
Mpro-x0387_0

>  <SCORE>  (195) 
-10.2698

>  <SCORE.norm>  (195) 
-0.68465200000000004

>  <SCORE.heavy>  (195) 
15

>  <OrigSmiles>  (195) 
C#CC1(O)CCN(Cc2cnoc2)CC1

>  <SuCOS_Score>  (195) 
0.49431179678158077

>  <Max_SuCOS_Score>  (195) 
0

>  <Cum_SuCOS_Score>  (195) 
0

>  <TransFSScore_50nM>  (195) 
0.0020709999999999999

>  <TransFSScore_1uM>  (195) 
0.029693000000000001

>  <TransFSScore_10nM>  (195) 
0.0040220000000000004

>  <TransFSScore_200nM>  (195) 
0.041572999999999999

>  <TransFSScore>  (195) 
0.019339749999999999

>  <FeatureSteinScore>  (195) 
0.48935339748914652

>  <XCos_RefMols>  (195) 
x1392_0,x0305_0

>  <XCos_NumHits>  (195) 
2

>  <XCos_Score1>  (195) 
11.0263

>  <XCos_Score2>  (195) 
0.1869

>  <XCos_Score3>  (195) 
0.0169

$$$$
C#CC1(O)CCN(Cc2cnoc2)CC1
     RDKit          3D

 15 16  0  0  0  0  0  0  0  0999 V2000
    8.1914   -5.7131   28.4754 C   0  0  0  0  0  0  0  0  0  0  0  0
    8.7064   -5.5275   27.4010 C   0  0  0  0  0  0  0  0  0  0  0  0
    9.3392   -5.3001   26.0819 C   0  0  0  0  0  0  0  0  0  0  0  0
    9.8692   -6.5191   25.6187 O   0  0  0  0  0  0  0  0  0  0  0  0
    8.2670   -4.8038   25.1013 C   0  0  0  0  0  0  0  0  0  0  0  0
    8.8707   -4.2739   23.8004 C   0  0  0  0  0  0  0  0  0  0  0  0
   10.0026   -3.3341   24.0156 N   0  0  0  0  0  0  0  0  0  0  0  0
   10.1729   -2.2125   23.0699 C   0  0  0  0  0  0  0  0  0  0  0  0
   11.5173   -1.5580   23.0755 C   0  0  0  0  0  0  0  0  0  0  0  0
   11.8849   -0.4098   23.7416 C   0  0  0  0  0  0  0  0  0  0  0  0
   13.1728   -0.1400   23.4559 N   0  0  0  0  0  0  0  0  0  0  0  0
   13.5922   -1.0713   22.6467 O   0  0  0  0  0  0  0  0  0  0  0  0
   12.6448   -1.9418   22.3837 C   0  0  0  0  0  0  0  0  0  0  0  0
   10.2760   -2.9847   25.4197 C   0  0  0  0  0  0  0  0  0  0  0  0
   10.4934   -4.2729   26.2364 C   0  0  0  0  0  0  0  0  0  0  0  0
  1  2  3  0
  2  3  1  0
  3  4  1  0
  3  5  1  0
  5  6  1  0
  6  7  1  0
  7  8  1  0
  7 14  1  0
  8  9  1  0
  9 10  1  0
 10 11  2  0
 11 12  1  0
 12 13  1  0
 13  9  2  0
 14 15  1  0
 15  3  1  0
M  END
>  <Hit>  (196) 
Mpro-x0387_0

>  <Receptor>  (196) 
Mpro-x0387_0

>  <SCORE>  (196) 
-10.4344

>  <SCORE.norm>  (196) 
-0.69562999999999997

>  <SCORE.heavy>  (196) 
15

>  <OrigSmiles>  (196) 
C#CC1(O)CCN(Cc2cnoc2)CC1

>  <SuCOS_Score>  (196) 
0.59423041933388954

>  <Max_SuCOS_Score>  (196) 
0

>  <Cum_SuCOS_Score>  (196) 
0

>  <TransFSScore_50nM>  (196) 
0.0042729999999999999

>  <TransFSScore_1uM>  (196) 
0.037279

>  <TransFSScore_10nM>  (196) 
0.01013

>  <TransFSScore_200nM>  (196) 
0.091368000000000005

>  <TransFSScore>  (196) 
0.035762500000000003

>  <FeatureSteinScore>  (196) 
0.55326017013254347

>  <XCos_RefMols>  (196) 
x1392_0,x0387_0,x1385_0

>  <XCos_NumHits>  (196) 
3

>  <XCos_Score1>  (196) 
11.7742

>  <XCos_Score2>  (196) 
0.0665

>  <XCos_Score3>  (196) 
0.0056

$$$$
C#CC1(O)CCN(Cc2cnsn2)CC1
     RDKit          3D

 15 16  0  0  0  0  0  0  0  0999 V2000
    7.5753   -6.3728   27.9020 C   0  0  0  0  0  0  0  0  0  0  0  0
    8.1137   -6.0047   26.8877 C   0  0  0  0  0  0  0  0  0  0  0  0
    8.7744   -5.5521   25.6425 C   0  0  0  0  0  0  0  0  0  0  0  0
    9.5667   -6.6033   25.1436 O   0  0  0  0  0  0  0  0  0  0  0  0
    7.6921   -5.1953   24.6133 C   0  0  0  0  0  0  0  0  0  0  0  0
    8.2625   -4.4539   23.4038 C   0  0  0  0  0  0  0  0  0  0  0  0
    9.1681   -3.3337   23.7724 N   0  0  0  0  0  0  0  0  0  0  0  0
    9.1736   -2.1274   22.9202 C   0  0  0  0  0  0  0  0  0  0  0  0
   10.5033   -1.4595   22.7543 C   0  0  0  0  0  0  0  0  0  0  0  0
   11.1471   -0.7579   23.8121 C   0  0  0  0  0  0  0  0  0  0  0  0
   12.3352   -0.1666   23.5107 N   0  0  0  0  0  0  0  0  0  0  0  0
   12.5031   -0.5600   21.9139 S   0  0  0  0  0  0  0  0  0  0  0  0
   11.1577   -1.4423   21.5668 N   0  0  0  0  0  0  0  0  0  0  0  0
    9.2722   -3.0530   25.2140 C   0  0  0  0  0  0  0  0  0  0  0  0
    9.6874   -4.3365   25.9583 C   0  0  0  0  0  0  0  0  0  0  0  0
  1  2  3  0
  2  3  1  0
  3  4  1  0
  3  5  1  0
  5  6  1  0
  6  7  1  0
  7  8  1  0
  7 14  1  0
  8  9  1  0
  9 10  1  0
 10 11  2  0
 11 12  1  0
 12 13  1  0
 13  9  2  0
 14 15  1  0
 15  3  1  0
M  END
>  <Hit>  (197) 
Mpro-x0387_0

>  <Receptor>  (197) 
Mpro-x0874_0

>  <SCORE>  (197) 
-11.6584

>  <SCORE.norm>  (197) 
-0.777227

>  <SCORE.heavy>  (197) 
15

>  <OrigSmiles>  (197) 
C#CC1(O)CCN(Cc2cnsn2)CC1

>  <SuCOS_Score>  (197) 
0.43006679427664224

>  <Max_SuCOS_Score>  (197) 
0

>  <Cum_SuCOS_Score>  (197) 
0

>  <TransFSScore_50nM>  (197) 
0.014318000000000001

>  <TransFSScore_1uM>  (197) 
0.0093589999999999993

>  <TransFSScore_10nM>  (197) 
0.079281000000000004

>  <TransFSScore_200nM>  (197) 
0.040658

>  <TransFSScore>  (197) 
0.035904000000000005

>  <FeatureSteinScore>  (197) 
0.46635079503176724

>  <XCos_RefMols>  (197) 
x0708_0,x1382_0

>  <XCos_NumHits>  (197) 
2

>  <XCos_Score1>  (197) 
11.3592

>  <XCos_Score2>  (197) 
0.1925

>  <XCos_Score3>  (197) 
0.0169

$$$$
C#CC1(O)CCN(Cc2cnsn2)CC1
     RDKit          3D

 15 16  0  0  0  0  0  0  0  0999 V2000
    7.6115   -6.4498   28.0035 C   0  0  0  0  0  0  0  0  0  0  0  0
    8.1335   -6.0819   26.9806 C   0  0  0  0  0  0  0  0  0  0  0  0
    8.7749   -5.6307   25.7248 C   0  0  0  0  0  0  0  0  0  0  0  0
    9.5596   -6.6824   25.2150 O   0  0  0  0  0  0  0  0  0  0  0  0
    7.6769   -5.2751   24.7120 C   0  0  0  0  0  0  0  0  0  0  0  0
    8.2286   -4.5351   23.4930 C   0  0  0  0  0  0  0  0  0  0  0  0
    9.1397   -3.4143   23.8464 N   0  0  0  0  0  0  0  0  0  0  0  0
    9.1320   -2.2091   22.9928 C   0  0  0  0  0  0  0  0  0  0  0  0
   10.4509   -1.5170   22.8401 C   0  0  0  0  0  0  0  0  0  0  0  0
   11.0562   -0.7775   23.8947 C   0  0  0  0  0  0  0  0  0  0  0  0
   12.2382   -0.1681   23.6052 N   0  0  0  0  0  0  0  0  0  0  0  0
   12.4496   -0.5948   22.0221 S   0  0  0  0  0  0  0  0  0  0  0  0
   11.1309   -1.5134   21.6669 N   0  0  0  0  0  0  0  0  0  0  0  0
    9.2658   -3.1320   25.2859 C   0  0  0  0  0  0  0  0  0  0  0  0
    9.6925   -4.4146   26.0252 C   0  0  0  0  0  0  0  0  0  0  0  0
  1  2  3  0
  2  3  1  0
  3  4  1  0
  3  5  1  0
  5  6  1  0
  6  7  1  0
  7  8  1  0
  7 14  1  0
  8  9  1  0
  9 10  1  0
 10 11  2  0
 11 12  1  0
 12 13  1  0
 13  9  2  0
 14 15  1  0
 15  3  1  0
M  END
>  <Hit>  (198) 
Mpro-x0387_0

>  <Receptor>  (198) 
Mpro-x0874_0

>  <SCORE>  (198) 
-11.707800000000001

>  <SCORE.norm>  (198) 
-0.78051800000000005

>  <SCORE.heavy>  (198) 
15

>  <OrigSmiles>  (198) 
C#CC1(O)CCN(Cc2cnsn2)CC1

>  <SuCOS_Score>  (198) 
0.42890426826204586

>  <Max_SuCOS_Score>  (198) 
0

>  <Cum_SuCOS_Score>  (198) 
0

>  <TransFSScore_50nM>  (198) 
0.014964

>  <TransFSScore_1uM>  (198) 
0.0085629999999999994

>  <TransFSScore_10nM>  (198) 
0.078867999999999994

>  <TransFSScore_200nM>  (198) 
0.037690000000000001

>  <TransFSScore>  (198) 
0.035021249999999997

>  <FeatureSteinScore>  (198) 
0.4580935172788177

>  <XCos_RefMols>  (198) 
x0708_0,x1382_0

>  <XCos_NumHits>  (198) 
2

>  <XCos_Score1>  (198) 
11.2949

>  <XCos_Score2>  (198) 
0.2553

>  <XCos_Score3>  (198) 
0.0226

$$$$
C#CC1(O)CCN(Cc2cnsn2)CC1
     RDKit          3D

 15 16  0  0  0  0  0  0  0  0999 V2000
   10.3995   -5.5737   25.3292 C   0  0  0  0  0  0  0  0  0  0  0  0
    9.3892   -5.0057   25.6662 C   0  0  0  0  0  0  0  0  0  0  0  0
    8.1279   -4.3219   26.0826 C   0  0  0  0  0  0  0  0  0  0  0  0
    7.8231   -5.0184   27.2185 O   0  0  0  0  0  0  0  0  0  0  0  0
    7.0534   -4.4296   25.0048 C   0  0  0  0  0  0  0  0  0  0  0  0
    7.6777   -3.9748   23.6893 C   0  0  0  0  0  0  0  0  0  0  0  0
    8.6532   -2.8637   23.8435 N   0  0  0  0  0  0  0  0  0  0  0  0
    8.9534   -2.0925   22.6336 C   0  0  0  0  0  0  0  0  0  0  0  0
   10.2984   -1.4318   22.6280 C   0  0  0  0  0  0  0  0  0  0  0  0
   10.8438   -0.7630   23.7625 C   0  0  0  0  0  0  0  0  0  0  0  0
   12.0672   -0.2064   23.5728 N   0  0  0  0  0  0  0  0  0  0  0  0
   12.4105   -0.5720   22.0020 S   0  0  0  0  0  0  0  0  0  0  0  0
   11.0812   -1.4178   21.5164 N   0  0  0  0  0  0  0  0  0  0  0  0
    8.4008   -2.0044   25.0227 C   0  0  0  0  0  0  0  0  0  0  0  0
    8.4164   -2.8300   26.3413 C   0  0  0  0  0  0  0  0  0  0  0  0
  1  2  3  0
  2  3  1  0
  3  4  1  0
  3  5  1  0
  5  6  1  0
  6  7  1  0
  7  8  1  0
  7 14  1  0
  8  9  1  0
  9 10  1  0
 10 11  2  0
 11 12  1  0
 12 13  1  0
 13  9  2  0
 14 15  1  0
 15  3  1  0
M  END
>  <Hit>  (199) 
Mpro-x0387_0

>  <Receptor>  (199) 
Mpro-x0874_0

>  <SCORE>  (199) 
-12.101599999999999

>  <SCORE.norm>  (199) 
-0.80677399999999999

>  <SCORE.heavy>  (199) 
15

>  <OrigSmiles>  (199) 
C#CC1(O)CCN(Cc2cnsn2)CC1

>  <SuCOS_Score>  (199) 
0.42659128819979936

>  <Max_SuCOS_Score>  (199) 
0

>  <Cum_SuCOS_Score>  (199) 
0

>  <TransFSScore_50nM>  (199) 
0.0030599999999999998

>  <TransFSScore_1uM>  (199) 
0.009214

>  <TransFSScore_10nM>  (199) 
0.039898999999999997

>  <TransFSScore_200nM>  (199) 
0.04684

>  <TransFSScore>  (199) 
0.024753249999999997

>  <FeatureSteinScore>  (199) 
0.51237148984351344

>  <XCos_RefMols>  (199) 
x0708_0,x1382_0

>  <XCos_NumHits>  (199) 
2

>  <XCos_Score1>  (199) 
10.6584

>  <XCos_Score2>  (199) 
0.1204

>  <XCos_Score3>  (199) 
0.0113

$$$$
C#CC1(O)CCN(Cc2cnsn2)CC1
     RDKit          3D

 15 16  0  0  0  0  0  0  0  0999 V2000
    9.2453   -1.0537   26.5339 C   0  0  0  0  0  0  0  0  0  0  0  0
    8.9764   -2.1543   26.1177 C   0  0  0  0  0  0  0  0  0  0  0  0
    8.6513   -3.5253   25.6214 C   0  0  0  0  0  0  0  0  0  0  0  0
    8.0188   -4.0489   26.7143 O   0  0  0  0  0  0  0  0  0  0  0  0
    9.9122   -4.2911   25.2325 C   0  0  0  0  0  0  0  0  0  0  0  0
   10.7201   -3.3971   24.2970 C   0  0  0  0  0  0  0  0  0  0  0  0
    9.8822   -2.5726   23.3870 N   0  0  0  0  0  0  0  0  0  0  0  0
   10.5501   -2.0407   22.1954 C   0  0  0  0  0  0  0  0  0  0  0  0
   11.7897   -1.2457   22.4729 C   0  0  0  0  0  0  0  0  0  0  0  0
   11.7905   -0.0445   23.2404 C   0  0  0  0  0  0  0  0  0  0  0  0
   13.0012    0.5540   23.3762 N   0  0  0  0  0  0  0  0  0  0  0  0
   14.0119   -0.4395   22.5335 S   0  0  0  0  0  0  0  0  0  0  0  0
   13.0019   -1.6221   21.9859 N   0  0  0  0  0  0  0  0  0  0  0  0
    8.5609   -3.1688   23.0851 C   0  0  0  0  0  0  0  0  0  0  0  0
    7.7400   -3.4182   24.3829 C   0  0  0  0  0  0  0  0  0  0  0  0
  1  2  3  0
  2  3  1  0
  3  4  1  0
  3  5  1  0
  5  6  1  0
  6  7  1  0
  7  8  1  0
  7 14  1  0
  8  9  1  0
  9 10  1  0
 10 11  2  0
 11 12  1  0
 12 13  1  0
 13  9  2  0
 14 15  1  0
 15  3  1  0
M  END
>  <Hit>  (200) 
Mpro-x0387_0

>  <Receptor>  (200) 
Mpro-x0305_0

>  <SCORE>  (200) 
-13.221299999999999

>  <SCORE.norm>  (200) 
-0.88141800000000003

>  <SCORE.heavy>  (200) 
15

>  <OrigSmiles>  (200) 
C#CC1(O)CCN(Cc2cnsn2)CC1

>  <SuCOS_Score>  (200) 
0.45962022647214507

>  <Max_SuCOS_Score>  (200) 
0

>  <Cum_SuCOS_Score>  (200) 
0

>  <TransFSScore_50nM>  (200) 
0.001549

>  <TransFSScore_1uM>  (200) 
0.022027999999999999

>  <TransFSScore_10nM>  (200) 
0.066540000000000002

>  <TransFSScore_200nM>  (200) 
0.052331000000000003

>  <TransFSScore>  (200) 
0.035612000000000005

>  <FeatureSteinScore>  (200) 
0.41733761470445402

>  <XCos_RefMols>  (200) 
x1392_0,x0104_0

>  <XCos_NumHits>  (200) 
2

>  <XCos_Score1>  (200) 
9.5298

>  <XCos_Score2>  (200) 
0.2154

>  <XCos_Score3>  (200) 
0.0226

$$$$
C#CC1(O)CCN(Cc2cnsn2)CC1
     RDKit          3D

 15 16  0  0  0  0  0  0  0  0999 V2000
    8.7898   -1.9314   27.0947 C   0  0  0  0  0  0  0  0  0  0  0  0
    8.6488   -3.0520   26.6690 C   0  0  0  0  0  0  0  0  0  0  0  0
    8.4904   -4.4459   26.1556 C   0  0  0  0  0  0  0  0  0  0  0  0
    8.1543   -5.1046   27.3052 O   0  0  0  0  0  0  0  0  0  0  0  0
    9.7819   -4.9580   25.5250 C   0  0  0  0  0  0  0  0  0  0  0  0
   10.2496   -3.9073   24.5228 C   0  0  0  0  0  0  0  0  0  0  0  0
    9.1379   -3.2263   23.8085 N   0  0  0  0  0  0  0  0  0  0  0  0
    9.4901   -2.5504   22.5563 C   0  0  0  0  0  0  0  0  0  0  0  0
   10.5296   -1.4796   22.6918 C   0  0  0  0  0  0  0  0  0  0  0  0
   10.9426   -0.9478   23.9483 C   0  0  0  0  0  0  0  0  0  0  0  0
   11.8826    0.0291   23.8818 N   0  0  0  0  0  0  0  0  0  0  0  0
   12.1534    0.1851   22.2628 S   0  0  0  0  0  0  0  0  0  0  0  0
   11.1362   -0.9332   21.6047 N   0  0  0  0  0  0  0  0  0  0  0  0
    7.9102   -4.0458   23.6915 C   0  0  0  0  0  0  0  0  0  0  0  0
    7.3779   -4.4748   25.0891 C   0  0  0  0  0  0  0  0  0  0  0  0
  1  2  3  0
  2  3  1  0
  3  4  1  0
  3  5  1  0
  5  6  1  0
  6  7  1  0
  7  8  1  0
  7 14  1  0
  8  9  1  0
  9 10  1  0
 10 11  2  0
 11 12  1  0
 12 13  1  0
 13  9  2  0
 14 15  1  0
 15  3  1  0
M  END
>  <Hit>  (201) 
Mpro-x0387_0

>  <Receptor>  (201) 
Mpro-x1249_0

>  <SCORE>  (201) 
-13.237500000000001

>  <SCORE.norm>  (201) 
-0.88250099999999998

>  <SCORE.heavy>  (201) 
15

>  <OrigSmiles>  (201) 
C#CC1(O)CCN(Cc2cnsn2)CC1

>  <SuCOS_Score>  (201) 
0.47767117902762368

>  <Max_SuCOS_Score>  (201) 
0

>  <Cum_SuCOS_Score>  (201) 
0

>  <TransFSScore_50nM>  (201) 
0.0052709999999999996

>  <TransFSScore_1uM>  (201) 
0.012147

>  <TransFSScore_10nM>  (201) 
0.040933999999999998

>  <TransFSScore_200nM>  (201) 
0.061742999999999999

>  <TransFSScore>  (201) 
0.030023750000000002

>  <FeatureSteinScore>  (201) 
0.49701041456798972

>  <XCos_RefMols>  (201) 
x1392_0,x0305_0

>  <XCos_NumHits>  (201) 
2

>  <XCos_Score1>  (201) 
11.0385

>  <XCos_Score2>  (201) 
0.1871

>  <XCos_Score3>  (201) 
0.0169

$$$$
C#CC1(O)CCN(Cc2cnsn2)CC1
     RDKit          3D

 15 16  0  0  0  0  0  0  0  0999 V2000
    8.8666   -1.8440   27.1024 C   0  0  0  0  0  0  0  0  0  0  0  0
    8.6775   -2.9651   26.6972 C   0  0  0  0  0  0  0  0  0  0  0  0
    8.4652   -4.3568   26.1973 C   0  0  0  0  0  0  0  0  0  0  0  0
    8.1436   -4.9993   27.3600 O   0  0  0  0  0  0  0  0  0  0  0  0
    9.7232   -4.9087   25.5335 C   0  0  0  0  0  0  0  0  0  0  0  0
   10.1916   -3.8773   24.5119 C   0  0  0  0  0  0  0  0  0  0  0  0
    9.0796   -3.1689   23.8251 N   0  0  0  0  0  0  0  0  0  0  0  0
    9.4149   -2.5101   22.5592 C   0  0  0  0  0  0  0  0  0  0  0  0
   10.5045   -1.4857   22.6541 C   0  0  0  0  0  0  0  0  0  0  0  0
   10.9437   -0.9260   23.8893 C   0  0  0  0  0  0  0  0  0  0  0  0
   11.9291    0.0017   23.7858 N   0  0  0  0  0  0  0  0  0  0  0  0
   12.2053    0.0817   22.1622 S   0  0  0  0  0  0  0  0  0  0  0  0
   11.1353   -1.0113   21.5471 N   0  0  0  0  0  0  0  0  0  0  0  0
    7.8264   -3.9538   23.7482 C   0  0  0  0  0  0  0  0  0  0  0  0
    7.3223   -4.3598   25.1629 C   0  0  0  0  0  0  0  0  0  0  0  0
  1  2  3  0
  2  3  1  0
  3  4  1  0
  3  5  1  0
  5  6  1  0
  6  7  1  0
  7  8  1  0
  7 14  1  0
  8  9  1  0
  9 10  1  0
 10 11  2  0
 11 12  1  0
 12 13  1  0
 13  9  2  0
 14 15  1  0
 15  3  1  0
M  END
>  <Hit>  (202) 
Mpro-x0387_0

>  <Receptor>  (202) 
Mpro-x1249_0

>  <SCORE>  (202) 
-13.260899999999999

>  <SCORE.norm>  (202) 
-0.88405999999999996

>  <SCORE.heavy>  (202) 
15

>  <OrigSmiles>  (202) 
C#CC1(O)CCN(Cc2cnsn2)CC1

>  <SuCOS_Score>  (202) 
0.48077073671168225

>  <Max_SuCOS_Score>  (202) 
0

>  <Cum_SuCOS_Score>  (202) 
0

>  <TransFSScore_50nM>  (202) 
0.0060740000000000004

>  <TransFSScore_1uM>  (202) 
0.012496

>  <TransFSScore_10nM>  (202) 
0.041135999999999999

>  <TransFSScore_200nM>  (202) 
0.063106999999999996

>  <TransFSScore>  (202) 
0.030703249999999998

>  <FeatureSteinScore>  (202) 
0.49429139891894336

>  <XCos_RefMols>  (202) 
x1392_0,x1382_0

>  <XCos_NumHits>  (202) 
2

>  <XCos_Score1>  (202) 
10.8762

>  <XCos_Score2>  (202) 
0.1843

>  <XCos_Score3>  (202) 
0.0169

$$$$
C#CC1(O)CCN(Cc2cnsn2)CC1
     RDKit          3D

 15 16  0  0  0  0  0  0  0  0999 V2000
    8.7450   -1.9021   27.0933 C   0  0  0  0  0  0  0  0  0  0  0  0
    8.5984   -3.0216   26.6666 C   0  0  0  0  0  0  0  0  0  0  0  0
    8.4158   -4.4148   26.1593 C   0  0  0  0  0  0  0  0  0  0  0  0
    8.0582   -5.0605   27.3098 O   0  0  0  0  0  0  0  0  0  0  0  0
    9.7013   -4.9559   25.5410 C   0  0  0  0  0  0  0  0  0  0  0  0
   10.1973   -3.9202   24.5368 C   0  0  0  0  0  0  0  0  0  0  0  0
    9.1047   -3.2209   23.8107 N   0  0  0  0  0  0  0  0  0  0  0  0
    9.4794   -2.5589   22.5577 C   0  0  0  0  0  0  0  0  0  0  0  0
   10.5179   -1.4880   22.6998 C   0  0  0  0  0  0  0  0  0  0  0  0
   10.9405   -0.9734   23.9602 C   0  0  0  0  0  0  0  0  0  0  0  0
   11.8779    0.0064   23.8998 N   0  0  0  0  0  0  0  0  0  0  0  0
   12.1345    0.1863   22.2810 S   0  0  0  0  0  0  0  0  0  0  0  0
   11.1141   -0.9246   21.6155 N   0  0  0  0  0  0  0  0  0  0  0  0
    7.8617   -4.0163   23.6889 C   0  0  0  0  0  0  0  0  0  0  0  0
    7.3107   -4.4271   25.0847 C   0  0  0  0  0  0  0  0  0  0  0  0
  1  2  3  0
  2  3  1  0
  3  4  1  0
  3  5  1  0
  5  6  1  0
  6  7  1  0
  7  8  1  0
  7 14  1  0
  8  9  1  0
  9 10  1  0
 10 11  2  0
 11 12  1  0
 12 13  1  0
 13  9  2  0
 14 15  1  0
 15  3  1  0
M  END
>  <Hit>  (203) 
Mpro-x0387_0

>  <Receptor>  (203) 
Mpro-x1249_0

>  <SCORE>  (203) 
-13.382199999999999

>  <SCORE.norm>  (203) 
-0.89214899999999997

>  <SCORE.heavy>  (203) 
15

>  <OrigSmiles>  (203) 
C#CC1(O)CCN(Cc2cnsn2)CC1

>  <SuCOS_Score>  (203) 
0.46599821896385113

>  <Max_SuCOS_Score>  (203) 
0

>  <Cum_SuCOS_Score>  (203) 
0

>  <TransFSScore_50nM>  (203) 
0.0051900000000000002

>  <TransFSScore_1uM>  (203) 
0.011580999999999999

>  <TransFSScore_10nM>  (203) 
0.041141999999999998

>  <TransFSScore_200nM>  (203) 
0.066267000000000006

>  <TransFSScore>  (203) 
0.031045000000000003

>  <FeatureSteinScore>  (203) 
0.49183720139327808

>  <XCos_RefMols>  (203) 
x1392_0,x0305_0

>  <XCos_NumHits>  (203) 
2

>  <XCos_Score1>  (203) 
11.0684

>  <XCos_Score2>  (203) 
0.1876

>  <XCos_Score3>  (203) 
0.0169

$$$$
C#CC1(O)CCN(Cc2cnsn2)CC1
     RDKit          3D

 15 16  0  0  0  0  0  0  0  0999 V2000
    8.7553   -1.8262   27.0652 C   0  0  0  0  0  0  0  0  0  0  0  0
    8.5492   -2.9443   26.6601 C   0  0  0  0  0  0  0  0  0  0  0  0
    8.3144   -4.3287   26.1499 C   0  0  0  0  0  0  0  0  0  0  0  0
    7.9296   -4.9620   27.2984 O   0  0  0  0  0  0  0  0  0  0  0  0
    9.5796   -4.9177   25.5336 C   0  0  0  0  0  0  0  0  0  0  0  0
   10.1174   -3.9001   24.5324 C   0  0  0  0  0  0  0  0  0  0  0  0
    9.0542   -3.1582   23.8050 N   0  0  0  0  0  0  0  0  0  0  0  0
    9.4571   -2.5090   22.5540 C   0  0  0  0  0  0  0  0  0  0  0  0
   10.5233   -1.4666   22.7029 C   0  0  0  0  0  0  0  0  0  0  0  0
   10.9594   -0.9715   23.9665 C   0  0  0  0  0  0  0  0  0  0  0  0
   11.9221   -0.0163   23.9123 N   0  0  0  0  0  0  0  0  0  0  0  0
   12.1832    0.1674   22.2946 S   0  0  0  0  0  0  0  0  0  0  0  0
   11.1339   -0.9119   21.6222 N   0  0  0  0  0  0  0  0  0  0  0  0
    7.7818   -3.9050   23.6790 C   0  0  0  0  0  0  0  0  0  0  0  0
    7.2122   -4.2967   25.0728 C   0  0  0  0  0  0  0  0  0  0  0  0
  1  2  3  0
  2  3  1  0
  3  4  1  0
  3  5  1  0
  5  6  1  0
  6  7  1  0
  7  8  1  0
  7 14  1  0
  8  9  1  0
  9 10  1  0
 10 11  2  0
 11 12  1  0
 12 13  1  0
 13  9  2  0
 14 15  1  0
 15  3  1  0
M  END
>  <Hit>  (204) 
Mpro-x0387_0

>  <Receptor>  (204) 
Mpro-x1249_0

>  <SCORE>  (204) 
-13.4444

>  <SCORE.norm>  (204) 
-0.89629400000000004

>  <SCORE.heavy>  (204) 
15

>  <OrigSmiles>  (204) 
C#CC1(O)CCN(Cc2cnsn2)CC1

>  <SuCOS_Score>  (204) 
0.45578350989072647

>  <Max_SuCOS_Score>  (204) 
0

>  <Cum_SuCOS_Score>  (204) 
0

>  <TransFSScore_50nM>  (204) 
0.005352

>  <TransFSScore_1uM>  (204) 
0.010708000000000001

>  <TransFSScore_10nM>  (204) 
0.041711999999999999

>  <TransFSScore_200nM>  (204) 
0.071122000000000005

>  <TransFSScore>  (204) 
0.032223500000000002

>  <FeatureSteinScore>  (204) 
0.49897057969799202

>  <XCos_RefMols>  (204) 
x1392_0,x0305_0

>  <XCos_NumHits>  (204) 
2

>  <XCos_Score1>  (204) 
11.1039

>  <XCos_Score2>  (204) 
0.1255

>  <XCos_Score3>  (204) 
0.0113

$$$$
C#CC1(O)CCN(Cc2cnsn2)CC1
     RDKit          3D

 15 16  0  0  0  0  0  0  0  0999 V2000
    8.8332   -3.6077   27.7908 C   0  0  0  0  0  0  0  0  0  0  0  0
    9.0886   -4.2379   26.7936 C   0  0  0  0  0  0  0  0  0  0  0  0
    9.4135   -5.0339   25.5718 C   0  0  0  0  0  0  0  0  0  0  0  0
    9.0861   -6.2924   25.9928 O   0  0  0  0  0  0  0  0  0  0  0  0
   10.8833   -4.8916   25.1883 C   0  0  0  0  0  0  0  0  0  0  0  0
   11.2012   -3.4005   25.1395 C   0  0  0  0  0  0  0  0  0  0  0  0
   10.0802   -2.5669   24.6310 N   0  0  0  0  0  0  0  0  0  0  0  0
   10.4352   -1.2302   24.1451 C   0  0  0  0  0  0  0  0  0  0  0  0
   11.7277   -1.1596   23.3901 C   0  0  0  0  0  0  0  0  0  0  0  0
   12.8173   -0.3295   23.7847 C   0  0  0  0  0  0  0  0  0  0  0  0
   13.9045   -0.3779   22.9734 N   0  0  0  0  0  0  0  0  0  0  0  0
   13.4569   -1.4501   21.8035 S   0  0  0  0  0  0  0  0  0  0  0  0
   11.9320   -1.8827   22.2571 N   0  0  0  0  0  0  0  0  0  0  0  0
    9.1673   -3.2862   23.7135 C   0  0  0  0  0  0  0  0  0  0  0  0
    8.5488   -4.5405   24.3950 C   0  0  0  0  0  0  0  0  0  0  0  0
  1  2  3  0
  2  3  1  0
  3  4  1  0
  3  5  1  0
  5  6  1  0
  6  7  1  0
  7  8  1  0
  7 14  1  0
  8  9  1  0
  9 10  1  0
 10 11  2  0
 11 12  1  0
 12 13  1  0
 13  9  2  0
 14 15  1  0
 15  3  1  0
M  END
>  <Hit>  (205) 
Mpro-x0387_0

>  <Receptor>  (205) 
Mpro-x0387_0

>  <SCORE>  (205) 
-13.446999999999999

>  <SCORE.norm>  (205) 
-0.89646599999999999

>  <SCORE.heavy>  (205) 
15

>  <OrigSmiles>  (205) 
C#CC1(O)CCN(Cc2cnsn2)CC1

>  <SuCOS_Score>  (205) 
0.59180574838432332

>  <Max_SuCOS_Score>  (205) 
0

>  <Cum_SuCOS_Score>  (205) 
0

>  <TransFSScore_50nM>  (205) 
0.010598

>  <TransFSScore_1uM>  (205) 
0.018398000000000001

>  <TransFSScore_10nM>  (205) 
0.023753

>  <TransFSScore_200nM>  (205) 
0.032056000000000001

>  <TransFSScore>  (205) 
0.021201250000000001

>  <FeatureSteinScore>  (205) 
0.61393670641132114

>  <XCos_RefMols>  (205) 
x0692_0,x0387_0

>  <XCos_NumHits>  (205) 
2

>  <XCos_Score1>  (205) 
10.6029

>  <XCos_Score2>  (205) 
0.1797

>  <XCos_Score3>  (205) 
0.0169

$$$$
C#CC1(O)CCN(Cc2cnsn2)CC1
     RDKit          3D

 15 16  0  0  0  0  0  0  0  0999 V2000
    8.8023   -2.2046   27.2090 C   0  0  0  0  0  0  0  0  0  0  0  0
    8.8026   -3.3554   26.8451 C   0  0  0  0  0  0  0  0  0  0  0  0
    8.8164   -4.7850   26.4114 C   0  0  0  0  0  0  0  0  0  0  0  0
    8.6591   -5.4176   27.6128 O   0  0  0  0  0  0  0  0  0  0  0  0
   10.1236   -5.1424   25.7104 C   0  0  0  0  0  0  0  0  0  0  0  0
   10.3631   -4.0951   24.6274 C   0  0  0  0  0  0  0  0  0  0  0  0
    9.1178   -3.6226   23.9673 N   0  0  0  0  0  0  0  0  0  0  0  0
    9.2815   -2.9765   22.6616 C   0  0  0  0  0  0  0  0  0  0  0  0
   10.3110   -1.8882   22.6245 C   0  0  0  0  0  0  0  0  0  0  0  0
   10.7437   -1.1838   23.7857 C   0  0  0  0  0  0  0  0  0  0  0  0
   11.6705   -0.2173   23.5638 N   0  0  0  0  0  0  0  0  0  0  0  0
   11.9056   -0.2848   21.9332 S   0  0  0  0  0  0  0  0  0  0  0  0
   10.8882   -1.4924   21.4590 N   0  0  0  0  0  0  0  0  0  0  0  0
    8.0187   -4.6147   23.9817 C   0  0  0  0  0  0  0  0  0  0  0  0
    7.6508   -5.0342   25.4341 C   0  0  0  0  0  0  0  0  0  0  0  0
  1  2  3  0
  2  3  1  0
  3  4  1  0
  3  5  1  0
  5  6  1  0
  6  7  1  0
  7  8  1  0
  7 14  1  0
  8  9  1  0
  9 10  1  0
 10 11  2  0
 11 12  1  0
 12 13  1  0
 13  9  2  0
 14 15  1  0
 15  3  1  0
M  END
>  <Hit>  (206) 
Mpro-x0387_0

>  <Receptor>  (206) 
Mpro-x1249_0

>  <SCORE>  (206) 
-13.4528

>  <SCORE.norm>  (206) 
-0.89685700000000002

>  <SCORE.heavy>  (206) 
15

>  <OrigSmiles>  (206) 
C#CC1(O)CCN(Cc2cnsn2)CC1

>  <SuCOS_Score>  (206) 
0.48025028504887957

>  <Max_SuCOS_Score>  (206) 
0

>  <Cum_SuCOS_Score>  (206) 
0

>  <TransFSScore_50nM>  (206) 
0.0093869999999999995

>  <TransFSScore_1uM>  (206) 
0.012848

>  <TransFSScore_10nM>  (206) 
0.032024999999999998

>  <TransFSScore_200nM>  (206) 
0.087390999999999996

>  <TransFSScore>  (206) 
0.03541275

>  <FeatureSteinScore>  (206) 
0.33233508305457526

>  <XCos_RefMols>  (206) 
x1392_0,x1382_0

>  <XCos_NumHits>  (206) 
2

>  <XCos_Score1>  (206) 
10.2222

>  <XCos_Score2>  (206) 
0.0000

>  <XCos_Score3>  (206) 
0.0000

$$$$
C#CC1(O)CCN(Cc2csc(C)c2)CC1
     RDKit          3D

 16 17  0  0  0  0  0  0  0  0999 V2000
    8.6042   -5.1817   28.7287 C   0  0  0  0  0  0  0  0  0  0  0  0
    8.9114   -5.2862   27.5674 C   0  0  0  0  0  0  0  0  0  0  0  0
    9.2885   -5.4142   26.1413 C   0  0  0  0  0  0  0  0  0  0  0  0
    9.3883   -6.7757   25.7985 O   0  0  0  0  0  0  0  0  0  0  0  0
    8.1997   -4.7874   25.2705 C   0  0  0  0  0  0  0  0  0  0  0  0
    8.7926   -4.4336   23.9233 C   0  0  0  0  0  0  0  0  0  0  0  0
    9.6855   -3.2824   24.1078 N   0  0  0  0  0  0  0  0  0  0  0  0
   10.1906   -2.8147   22.8131 C   0  0  0  0  0  0  0  0  0  0  0  0
   10.6556   -1.3898   22.9669 C   0  0  0  0  0  0  0  0  0  0  0  0
   11.8800   -1.0767   23.5632 C   0  0  0  0  0  0  0  0  0  0  0  0
   12.0236    0.5842   23.6491 S   0  0  0  0  0  0  0  0  0  0  0  0
   10.5405    0.9351   22.9483 C   0  0  0  0  0  0  0  0  0  0  0  0
   10.0330    2.3062   22.6518 C   0  0  0  0  0  0  0  0  0  0  0  0
    9.8955   -0.2559   22.6248 C   0  0  0  0  0  0  0  0  0  0  0  0
   10.7441   -3.4571   25.1321 C   0  0  0  0  0  0  0  0  0  0  0  0
   10.6885   -4.7825   25.9144 C   0  0  0  0  0  0  0  0  0  0  0  0
  1  2  3  0
  2  3  1  0
  3  4  1  0
  3  5  1  0
  5  6  1  0
  6  7  1  0
  7  8  1  0
  7 15  1  0
  8  9  1  0
  9 10  2  0
 10 11  1  0
 11 12  1  0
 12 13  1  0
 12 14  2  0
 14  9  1  0
 15 16  1  0
 16  3  1  0
M  END
>  <Hit>  (207) 
Mpro-x0387_0

>  <Receptor>  (207) 
Mpro-x0387_0

>  <SCORE>  (207) 
-9.8441200000000002

>  <SCORE.norm>  (207) 
-0.61525700000000005

>  <SCORE.heavy>  (207) 
16

>  <OrigSmiles>  (207) 
C#CC1(O)CCN(Cc2csc(C)c2)CC1

>  <SuCOS_Score>  (207) 
0.51621299514801022

>  <Max_SuCOS_Score>  (207) 
0

>  <Cum_SuCOS_Score>  (207) 
0

>  <TransFSScore_50nM>  (207) 
0.001475

>  <TransFSScore_1uM>  (207) 
0.0061069999999999996

>  <TransFSScore_10nM>  (207) 
0.0077260000000000002

>  <TransFSScore_200nM>  (207) 
0.0030560000000000001

>  <TransFSScore>  (207) 
0.0045909999999999996

>  <FeatureSteinScore>  (207) 
0.58844094888174547

>  <XCos_RefMols>  (207) 
x1392_0

>  <XCos_NumHits>  (207) 
1

>  <XCos_Score1>  (207) 
11.4808

>  <XCos_Score2>  (207) 
0.1297

>  <XCos_Score3>  (207) 
0.0113

$$$$
C#CC1(O)CCN(Cc2csc(C)c2)CC1
     RDKit          3D

 16 17  0  0  0  0  0  0  0  0999 V2000
    8.6089   -5.1960   28.6794 C   0  0  0  0  0  0  0  0  0  0  0  0
    8.9236   -5.2767   27.5181 C   0  0  0  0  0  0  0  0  0  0  0  0
    9.3102   -5.3762   26.0923 C   0  0  0  0  0  0  0  0  0  0  0  0
    9.4114   -6.7306   25.7227 O   0  0  0  0  0  0  0  0  0  0  0  0
    8.2277   -4.7310   25.2271 C   0  0  0  0  0  0  0  0  0  0  0  0
    8.8298   -4.3506   23.8913 C   0  0  0  0  0  0  0  0  0  0  0  0
    9.7221   -3.2041   24.1050 N   0  0  0  0  0  0  0  0  0  0  0  0
   10.2362   -2.7107   22.8234 C   0  0  0  0  0  0  0  0  0  0  0  0
   10.6888   -1.2851   23.0058 C   0  0  0  0  0  0  0  0  0  0  0  0
   11.8918   -0.9721   23.6443 C   0  0  0  0  0  0  0  0  0  0  0  0
   12.0241    0.6886   23.7507 S   0  0  0  0  0  0  0  0  0  0  0  0
   10.5625    1.0393   23.0058 C   0  0  0  0  0  0  0  0  0  0  0  0
   10.0578    2.4107   22.7063 C   0  0  0  0  0  0  0  0  0  0  0  0
    9.9342   -0.1516   22.6503 C   0  0  0  0  0  0  0  0  0  0  0  0
   10.7737   -3.4001   25.1326 C   0  0  0  0  0  0  0  0  0  0  0  0
   10.7121   -4.7410   25.8876 C   0  0  0  0  0  0  0  0  0  0  0  0
  1  2  3  0
  2  3  1  0
  3  4  1  0
  3  5  1  0
  5  6  1  0
  6  7  1  0
  7  8  1  0
  7 15  1  0
  8  9  1  0
  9 10  2  0
 10 11  1  0
 11 12  1  0
 12 13  1  0
 12 14  2  0
 14  9  1  0
 15 16  1  0
 16  3  1  0
M  END
>  <Hit>  (208) 
Mpro-x0387_0

>  <Receptor>  (208) 
Mpro-x0387_0

>  <SCORE>  (208) 
-9.8699200000000005

>  <SCORE.norm>  (208) 
-0.61687000000000003

>  <SCORE.heavy>  (208) 
16

>  <OrigSmiles>  (208) 
C#CC1(O)CCN(Cc2csc(C)c2)CC1

>  <SuCOS_Score>  (208) 
0.52471543120208652

>  <Max_SuCOS_Score>  (208) 
0

>  <Cum_SuCOS_Score>  (208) 
0

>  <TransFSScore_50nM>  (208) 
0.00158

>  <TransFSScore_1uM>  (208) 
0.0060540000000000004

>  <TransFSScore_10nM>  (208) 
0.0076899999999999998

>  <TransFSScore_200nM>  (208) 
0.002911

>  <TransFSScore>  (208) 
0.0045587500000000003

>  <FeatureSteinScore>  (208) 
0.61042950057600187

>  <XCos_RefMols>  (208) 
x1392_0

>  <XCos_NumHits>  (208) 
1

>  <XCos_Score1>  (208) 
11.4618

>  <XCos_Score2>  (208) 
0.1295

>  <XCos_Score3>  (208) 
0.0113

$$$$
C#CC1(O)CCN(Cc2csc(C)c2)CC1
     RDKit          3D

 16 17  0  0  0  0  0  0  0  0999 V2000
    8.5935   -5.1360   28.7097 C   0  0  0  0  0  0  0  0  0  0  0  0
    8.8950   -5.2400   27.5468 C   0  0  0  0  0  0  0  0  0  0  0  0
    9.2654   -5.3682   26.1190 C   0  0  0  0  0  0  0  0  0  0  0  0
    9.3368   -6.7296   25.7689 O   0  0  0  0  0  0  0  0  0  0  0  0
    8.1870   -4.7151   25.2547 C   0  0  0  0  0  0  0  0  0  0  0  0
    8.7830   -4.3663   23.9076 C   0  0  0  0  0  0  0  0  0  0  0  0
    9.6994   -3.2343   24.0954 N   0  0  0  0  0  0  0  0  0  0  0  0
   10.2101   -2.7701   22.8016 C   0  0  0  0  0  0  0  0  0  0  0  0
   10.7030   -1.3552   22.9610 C   0  0  0  0  0  0  0  0  0  0  0  0
   11.9477   -1.0702   23.5285 C   0  0  0  0  0  0  0  0  0  0  0  0
   12.1215    0.5869   23.6316 S   0  0  0  0  0  0  0  0  0  0  0  0
   10.6265    0.9714   22.9748 C   0  0  0  0  0  0  0  0  0  0  0  0
   10.1345    2.3544   22.7093 C   0  0  0  0  0  0  0  0  0  0  0  0
    9.9532   -0.2045   22.6536 C   0  0  0  0  0  0  0  0  0  0  0  0
   10.7571   -3.4354   25.1156 C   0  0  0  0  0  0  0  0  0  0  0  0
   10.6772   -4.7635   25.8912 C   0  0  0  0  0  0  0  0  0  0  0  0
  1  2  3  0
  2  3  1  0
  3  4  1  0
  3  5  1  0
  5  6  1  0
  6  7  1  0
  7  8  1  0
  7 15  1  0
  8  9  1  0
  9 10  2  0
 10 11  1  0
 11 12  1  0
 12 13  1  0
 12 14  2  0
 14  9  1  0
 15 16  1  0
 16  3  1  0
M  END
>  <Hit>  (209) 
Mpro-x0387_0

>  <Receptor>  (209) 
Mpro-x0387_0

>  <SCORE>  (209) 
-9.8705499999999997

>  <SCORE.norm>  (209) 
-0.61690900000000004

>  <SCORE.heavy>  (209) 
16

>  <OrigSmiles>  (209) 
C#CC1(O)CCN(Cc2csc(C)c2)CC1

>  <SuCOS_Score>  (209) 
0.52917443051456559

>  <Max_SuCOS_Score>  (209) 
0

>  <Cum_SuCOS_Score>  (209) 
0

>  <TransFSScore_50nM>  (209) 
0.0014270000000000001

>  <TransFSScore_1uM>  (209) 
0.0060829999999999999

>  <TransFSScore_10nM>  (209) 
0.0079970000000000006

>  <TransFSScore_200nM>  (209) 
0.0030179999999999998

>  <TransFSScore>  (209) 
0.00463125

>  <FeatureSteinScore>  (209) 
0.61827142240649813

>  <XCos_RefMols>  (209) 
x1392_0

>  <XCos_NumHits>  (209) 
1

>  <XCos_Score1>  (209) 
11.5188

>  <XCos_Score2>  (209) 
0.2603

>  <XCos_Score3>  (209) 
0.0226

$$$$
C#CC1(O)CCN(Cc2csc(C)c2)CC1
     RDKit          3D

 16 17  0  0  0  0  0  0  0  0999 V2000
    8.6185   -5.1306   28.7768 C   0  0  0  0  0  0  0  0  0  0  0  0
    8.9131   -5.2420   27.6128 C   0  0  0  0  0  0  0  0  0  0  0  0
    9.2747   -5.3785   26.1835 C   0  0  0  0  0  0  0  0  0  0  0  0
    9.3566   -6.7420   25.8441 O   0  0  0  0  0  0  0  0  0  0  0  0
    8.1840   -4.7428   25.3215 C   0  0  0  0  0  0  0  0  0  0  0  0
    8.7672   -4.3995   23.9674 C   0  0  0  0  0  0  0  0  0  0  0  0
    9.6741   -3.2574   24.1393 N   0  0  0  0  0  0  0  0  0  0  0  0
   10.1712   -2.7991   22.8382 C   0  0  0  0  0  0  0  0  0  0  0  0
   10.6304   -1.3708   22.9770 C   0  0  0  0  0  0  0  0  0  0  0  0
   11.8532   -1.0464   23.5707 C   0  0  0  0  0  0  0  0  0  0  0  0
   11.9901    0.6159   23.6389 S   0  0  0  0  0  0  0  0  0  0  0  0
   10.5059    0.9533   22.9334 C   0  0  0  0  0  0  0  0  0  0  0  0
    9.9931    2.3190   22.6219 C   0  0  0  0  0  0  0  0  0  0  0  0
    9.8659   -0.2437   22.6223 C   0  0  0  0  0  0  0  0  0  0  0  0
   10.7408   -3.4401   25.1536 C   0  0  0  0  0  0  0  0  0  0  0  0
   10.6790   -4.7623   25.9407 C   0  0  0  0  0  0  0  0  0  0  0  0
  1  2  3  0
  2  3  1  0
  3  4  1  0
  3  5  1  0
  5  6  1  0
  6  7  1  0
  7  8  1  0
  7 15  1  0
  8  9  1  0
  9 10  2  0
 10 11  1  0
 11 12  1  0
 12 13  1  0
 12 14  2  0
 14  9  1  0
 15 16  1  0
 16  3  1  0
M  END
>  <Hit>  (210) 
Mpro-x0387_0

>  <Receptor>  (210) 
Mpro-x0387_0

>  <SCORE>  (210) 
-9.8936200000000003

>  <SCORE.norm>  (210) 
-0.61835099999999998

>  <SCORE.heavy>  (210) 
16

>  <OrigSmiles>  (210) 
C#CC1(O)CCN(Cc2csc(C)c2)CC1

>  <SuCOS_Score>  (210) 
0.51940560573269923

>  <Max_SuCOS_Score>  (210) 
0

>  <Cum_SuCOS_Score>  (210) 
0

>  <TransFSScore_50nM>  (210) 
0.001557

>  <TransFSScore_1uM>  (210) 
0.0058199999999999997

>  <TransFSScore_10nM>  (210) 
0.0076930000000000002

>  <TransFSScore_200nM>  (210) 
0.0030300000000000001

>  <TransFSScore>  (210) 
0.0045250000000000004

>  <FeatureSteinScore>  (210) 
0.59352428938419055

>  <XCos_RefMols>  (210) 
x1392_0

>  <XCos_NumHits>  (210) 
1

>  <XCos_Score1>  (210) 
11.3920

>  <XCos_Score2>  (210) 
0.1287

>  <XCos_Score3>  (210) 
0.0113

$$$$
C#CC1(O)CCN(Cc2csc(C)c2)CC1
     RDKit          3D

 16 17  0  0  0  0  0  0  0  0999 V2000
    8.6511   -5.1345   28.7612 C   0  0  0  0  0  0  0  0  0  0  0  0
    8.9213   -5.2393   27.5907 C   0  0  0  0  0  0  0  0  0  0  0  0
    9.2535   -5.3679   26.1535 C   0  0  0  0  0  0  0  0  0  0  0  0
    9.2837   -6.7286   25.7947 O   0  0  0  0  0  0  0  0  0  0  0  0
    8.1700   -4.6844   25.3195 C   0  0  0  0  0  0  0  0  0  0  0  0
    8.7410   -4.3420   23.9599 C   0  0  0  0  0  0  0  0  0  0  0  0
    9.6885   -3.2332   24.1309 N   0  0  0  0  0  0  0  0  0  0  0  0
   10.1782   -2.7737   22.8274 C   0  0  0  0  0  0  0  0  0  0  0  0
   10.6522   -1.3504   22.9684 C   0  0  0  0  0  0  0  0  0  0  0  0
   11.8532   -1.0360   23.6099 C   0  0  0  0  0  0  0  0  0  0  0  0
   12.0116    0.6249   23.6637 S   0  0  0  0  0  0  0  0  0  0  0  0
   10.5641    0.9744   22.8914 C   0  0  0  0  0  0  0  0  0  0  0  0
   10.0852    2.3433   22.5418 C   0  0  0  0  0  0  0  0  0  0  0  0
    9.9202   -0.2172   22.5678 C   0  0  0  0  0  0  0  0  0  0  0  0
   10.7658   -3.4653   25.1237 C   0  0  0  0  0  0  0  0  0  0  0  0
   10.6732   -4.7956   25.8942 C   0  0  0  0  0  0  0  0  0  0  0  0
  1  2  3  0
  2  3  1  0
  3  4  1  0
  3  5  1  0
  5  6  1  0
  6  7  1  0
  7  8  1  0
  7 15  1  0
  8  9  1  0
  9 10  2  0
 10 11  1  0
 11 12  1  0
 12 13  1  0
 12 14  2  0
 14  9  1  0
 15 16  1  0
 16  3  1  0
M  END
>  <Hit>  (211) 
Mpro-x0387_0

>  <Receptor>  (211) 
Mpro-x0387_0

>  <SCORE>  (211) 
-9.9036600000000004

>  <SCORE.norm>  (211) 
-0.61897899999999995

>  <SCORE.heavy>  (211) 
16

>  <OrigSmiles>  (211) 
C#CC1(O)CCN(Cc2csc(C)c2)CC1

>  <SuCOS_Score>  (211) 
0.52503408196896828

>  <Max_SuCOS_Score>  (211) 
0

>  <Cum_SuCOS_Score>  (211) 
0

>  <TransFSScore_50nM>  (211) 
0.0015139999999999999

>  <TransFSScore_1uM>  (211) 
0.005731

>  <TransFSScore_10nM>  (211) 
0.0084740000000000006

>  <TransFSScore_200nM>  (211) 
0.0033080000000000002

>  <TransFSScore>  (211) 
0.0047567500000000006

>  <FeatureSteinScore>  (211) 
0.60504004281030999

>  <XCos_RefMols>  (211) 
x1392_0

>  <XCos_NumHits>  (211) 
1

>  <XCos_Score1>  (211) 
11.4656

>  <XCos_Score2>  (211) 
0.1296

>  <XCos_Score3>  (211) 
0.0113

$$$$
C#CC1(O)CCN(Cc2cscc2C)CC1
     RDKit          3D

 16 17  0  0  0  0  0  0  0  0999 V2000
    8.1347   -4.6751   27.5592 C   0  0  0  0  0  0  0  0  0  0  0  0
    8.7853   -5.2141   26.6976 C   0  0  0  0  0  0  0  0  0  0  0  0
    9.5875   -5.8899   25.6264 C   0  0  0  0  0  0  0  0  0  0  0  0
    9.6427   -7.1825   26.0752 O   0  0  0  0  0  0  0  0  0  0  0  0
   10.9795   -5.3022   25.4394 C   0  0  0  0  0  0  0  0  0  0  0  0
   10.7923   -3.8160   25.4442 C   0  0  0  0  0  0  0  0  0  0  0  0
    9.9128   -3.3735   24.3360 N   0  0  0  0  0  0  0  0  0  0  0  0
    9.5042   -1.9873   24.5901 C   0  0  0  0  0  0  0  0  0  0  0  0
   10.6573   -1.0707   24.2752 C   0  0  0  0  0  0  0  0  0  0  0  0
   11.3754   -0.4534   25.2990 C   0  0  0  0  0  0  0  0  0  0  0  0
   12.5035    0.5651   24.6156 S   0  0  0  0  0  0  0  0  0  0  0  0
   12.1100    0.2617   23.0149 C   0  0  0  0  0  0  0  0  0  0  0  0
   11.0595   -0.6547   22.9836 C   0  0  0  0  0  0  0  0  0  0  0  0
   10.4431   -1.1393   21.7065 C   0  0  0  0  0  0  0  0  0  0  0  0
    8.7358   -4.2073   23.9635 C   0  0  0  0  0  0  0  0  0  0  0  0
    8.8312   -5.7063   24.3246 C   0  0  0  0  0  0  0  0  0  0  0  0
  1  2  3  0
  2  3  1  0
  3  4  1  0
  3  5  1  0
  5  6  1  0
  6  7  1  0
  7  8  1  0
  7 15  1  0
  8  9  1  0
  9 10  2  0
 10 11  1  0
 11 12  1  0
 12 13  2  0
 13 14  1  0
 13  9  1  0
 15 16  1  0
 16  3  1  0
M  END
>  <Hit>  (212) 
Mpro-x0387_0

>  <Receptor>  (212) 
Mpro-x0387_0

>  <SCORE>  (212) 
-10.2403

>  <SCORE.norm>  (212) 
-0.64002099999999995

>  <SCORE.heavy>  (212) 
16

>  <OrigSmiles>  (212) 
C#CC1(O)CCN(Cc2cscc2C)CC1

>  <SuCOS_Score>  (212) 
0.5735332688910264

>  <Max_SuCOS_Score>  (212) 
0

>  <Cum_SuCOS_Score>  (212) 
0

>  <TransFSScore_50nM>  (212) 
0.0024589999999999998

>  <TransFSScore_1uM>  (212) 
0.012267999999999999

>  <TransFSScore_10nM>  (212) 
0.019601

>  <TransFSScore_200nM>  (212) 
0.0067689999999999998

>  <TransFSScore>  (212) 
0.010274249999999999

>  <FeatureSteinScore>  (212) 
0.52163659032585152

>  <XCos_RefMols>  (212) 
x0831_0,x0072_0

>  <XCos_NumHits>  (212) 
2

>  <XCos_Score1>  (212) 
11.7777

>  <XCos_Score2>  (212) 
0.2662

>  <XCos_Score3>  (212) 
0.0226

$$$$
C#CC1(O)CCN(Cc2cscc2C)CC1
     RDKit          3D

 16 17  0  0  0  0  0  0  0  0999 V2000
    8.3539   -4.5418   27.8508 C   0  0  0  0  0  0  0  0  0  0  0  0
    8.8189   -5.1125   26.8947 C   0  0  0  0  0  0  0  0  0  0  0  0
    9.3986   -5.8141   25.7033 C   0  0  0  0  0  0  0  0  0  0  0  0
    9.4275   -7.1186   26.1188 O   0  0  0  0  0  0  0  0  0  0  0  0
   10.7850   -5.3194   25.3144 C   0  0  0  0  0  0  0  0  0  0  0  0
   10.7086   -3.8244   25.3703 C   0  0  0  0  0  0  0  0  0  0  0  0
    9.7057   -3.2935   24.4165 N   0  0  0  0  0  0  0  0  0  0  0  0
    9.4415   -1.8894   24.7510 C   0  0  0  0  0  0  0  0  0  0  0  0
   10.6345   -1.0586   24.3564 C   0  0  0  0  0  0  0  0  0  0  0  0
   11.4092   -0.4212   25.3250 C   0  0  0  0  0  0  0  0  0  0  0  0
   12.5737    0.4902   24.5568 S   0  0  0  0  0  0  0  0  0  0  0  0
   12.1260    0.1128   22.9864 C   0  0  0  0  0  0  0  0  0  0  0  0
   11.0273   -0.7444   23.0335 C   0  0  0  0  0  0  0  0  0  0  0  0
   10.3550   -1.2705   21.8017 C   0  0  0  0  0  0  0  0  0  0  0  0
    8.4287   -4.0340   24.2159 C   0  0  0  0  0  0  0  0  0  0  0  0
    8.4690   -5.5449   24.5354 C   0  0  0  0  0  0  0  0  0  0  0  0
  1  2  3  0
  2  3  1  0
  3  4  1  0
  3  5  1  0
  5  6  1  0
  6  7  1  0
  7  8  1  0
  7 15  1  0
  8  9  1  0
  9 10  2  0
 10 11  1  0
 11 12  1  0
 12 13  2  0
 13 14  1  0
 13  9  1  0
 15 16  1  0
 16  3  1  0
M  END
>  <Hit>  (213) 
Mpro-x0387_0

>  <Receptor>  (213) 
Mpro-x0387_0

>  <SCORE>  (213) 
-10.600899999999999

>  <SCORE.norm>  (213) 
-0.66255699999999995

>  <SCORE.heavy>  (213) 
16

>  <OrigSmiles>  (213) 
C#CC1(O)CCN(Cc2cscc2C)CC1

>  <SuCOS_Score>  (213) 
0.60121841306923873

>  <Max_SuCOS_Score>  (213) 
0

>  <Cum_SuCOS_Score>  (213) 
0

>  <TransFSScore_50nM>  (213) 
0.0033210000000000002

>  <TransFSScore_1uM>  (213) 
0.013865000000000001

>  <TransFSScore_10nM>  (213) 
0.018554000000000001

>  <TransFSScore_200nM>  (213) 
0.0072690000000000003

>  <TransFSScore>  (213) 
0.01075225

>  <FeatureSteinScore>  (213) 
0.57036446639090199

>  <XCos_RefMols>  (213) 
x0831_0

>  <XCos_NumHits>  (213) 
1

>  <XCos_Score1>  (213) 
11.7601

>  <XCos_Score2>  (213) 
0.2658

>  <XCos_Score3>  (213) 
0.0226

$$$$
C#CC1(O)CCN(Cc2cscc2C)CC1
     RDKit          3D

 16 17  0  0  0  0  0  0  0  0999 V2000
    8.2207   -4.5991   27.7368 C   0  0  0  0  0  0  0  0  0  0  0  0
    8.7567   -5.1596   26.8123 C   0  0  0  0  0  0  0  0  0  0  0  0
    9.4152   -5.8599   25.6618 C   0  0  0  0  0  0  0  0  0  0  0  0
    9.4428   -7.1605   26.0895 O   0  0  0  0  0  0  0  0  0  0  0  0
   10.8128   -5.3439   25.3480 C   0  0  0  0  0  0  0  0  0  0  0  0
   10.7077   -3.8501   25.3865 C   0  0  0  0  0  0  0  0  0  0  0  0
    9.7517   -3.3443   24.3728 N   0  0  0  0  0  0  0  0  0  0  0  0
    9.4449   -1.9425   24.6797 C   0  0  0  0  0  0  0  0  0  0  0  0
   10.6407   -1.0927   24.3377 C   0  0  0  0  0  0  0  0  0  0  0  0
   11.3428   -0.4180   25.3360 C   0  0  0  0  0  0  0  0  0  0  0  0
   12.5305    0.5041   24.6177 S   0  0  0  0  0  0  0  0  0  0  0  0
   12.1848    0.0845   23.0323 C   0  0  0  0  0  0  0  0  0  0  0  0
   11.1041   -0.7966   23.0336 C   0  0  0  0  0  0  0  0  0  0  0  0
   10.5174   -1.3631   21.7763 C   0  0  0  0  0  0  0  0  0  0  0  0
    8.5011   -4.1086   24.1065 C   0  0  0  0  0  0  0  0  0  0  0  0
    8.5491   -5.6161   24.4408 C   0  0  0  0  0  0  0  0  0  0  0  0
  1  2  3  0
  2  3  1  0
  3  4  1  0
  3  5  1  0
  5  6  1  0
  6  7  1  0
  7  8  1  0
  7 15  1  0
  8  9  1  0
  9 10  2  0
 10 11  1  0
 11 12  1  0
 12 13  2  0
 13 14  1  0
 13  9  1  0
 15 16  1  0
 16  3  1  0
M  END
>  <Hit>  (214) 
Mpro-x0387_0

>  <Receptor>  (214) 
Mpro-x0387_0

>  <SCORE>  (214) 
-10.668200000000001

>  <SCORE.norm>  (214) 
-0.66676400000000002

>  <SCORE.heavy>  (214) 
16

>  <OrigSmiles>  (214) 
C#CC1(O)CCN(Cc2cscc2C)CC1

>  <SuCOS_Score>  (214) 
0.59842946024945243

>  <Max_SuCOS_Score>  (214) 
0

>  <Cum_SuCOS_Score>  (214) 
0

>  <TransFSScore_50nM>  (214) 
0.002905

>  <TransFSScore_1uM>  (214) 
0.015084999999999999

>  <TransFSScore_10nM>  (214) 
0.019172999999999999

>  <TransFSScore_200nM>  (214) 
0.0067279999999999996

>  <TransFSScore>  (214) 
0.01097275

>  <FeatureSteinScore>  (214) 
0.54846985173336427

>  <XCos_RefMols>  (214) 
x0831_0

>  <XCos_NumHits>  (214) 
1

>  <XCos_Score1>  (214) 
11.8079

>  <XCos_Score2>  (214) 
0.2668

>  <XCos_Score3>  (214) 
0.0226

$$$$
C#CC1(O)CCN(Cc2cscc2C)CC1
     RDKit          3D

 16 17  0  0  0  0  0  0  0  0999 V2000
    8.1947   -4.5963   27.6685 C   0  0  0  0  0  0  0  0  0  0  0  0
    8.7561   -5.1603   26.7614 C   0  0  0  0  0  0  0  0  0  0  0  0
    9.4465   -5.8656   25.6329 C   0  0  0  0  0  0  0  0  0  0  0  0
    9.4719   -7.1625   26.0719 O   0  0  0  0  0  0  0  0  0  0  0  0
   10.8480   -5.3432   25.3486 C   0  0  0  0  0  0  0  0  0  0  0  0
   10.7327   -3.8498   25.3723 C   0  0  0  0  0  0  0  0  0  0  0  0
    9.7983   -3.3584   24.3317 N   0  0  0  0  0  0  0  0  0  0  0  0
    9.4755   -1.9562   24.6196 C   0  0  0  0  0  0  0  0  0  0  0  0
   10.6724   -1.1010   24.2953 C   0  0  0  0  0  0  0  0  0  0  0  0
   11.3969   -0.4771   25.3104 C   0  0  0  0  0  0  0  0  0  0  0  0
   12.5800    0.4673   24.6137 S   0  0  0  0  0  0  0  0  0  0  0  0
   12.2039    0.1219   23.0174 C   0  0  0  0  0  0  0  0  0  0  0  0
   11.1160   -0.7502   22.9979 C   0  0  0  0  0  0  0  0  0  0  0  0
   10.5035   -1.2552   21.7269 C   0  0  0  0  0  0  0  0  0  0  0  0
    8.5593   -4.1329   24.0417 C   0  0  0  0  0  0  0  0  0  0  0  0
    8.6086   -5.6373   24.3894 C   0  0  0  0  0  0  0  0  0  0  0  0
  1  2  3  0
  2  3  1  0
  3  4  1  0
  3  5  1  0
  5  6  1  0
  6  7  1  0
  7  8  1  0
  7 15  1  0
  8  9  1  0
  9 10  2  0
 10 11  1  0
 11 12  1  0
 12 13  2  0
 13 14  1  0
 13  9  1  0
 15 16  1  0
 16  3  1  0
M  END
>  <Hit>  (215) 
Mpro-x0387_0

>  <Receptor>  (215) 
Mpro-x0387_0

>  <SCORE>  (215) 
-10.7082

>  <SCORE.norm>  (215) 
-0.669265

>  <SCORE.heavy>  (215) 
16

>  <OrigSmiles>  (215) 
C#CC1(O)CCN(Cc2cscc2C)CC1

>  <SuCOS_Score>  (215) 
0.59402047091129906

>  <Max_SuCOS_Score>  (215) 
0

>  <Cum_SuCOS_Score>  (215) 
0

>  <TransFSScore_50nM>  (215) 
0.0027239999999999999

>  <TransFSScore_1uM>  (215) 
0.013785

>  <TransFSScore_10nM>  (215) 
0.018873999999999998

>  <TransFSScore_200nM>  (215) 
0.0069550000000000002

>  <TransFSScore>  (215) 
0.0105845

>  <FeatureSteinScore>  (215) 
0.54286480985741448

>  <XCos_RefMols>  (215) 
x0831_0,x0072_0

>  <XCos_NumHits>  (215) 
2

>  <XCos_Score1>  (215) 
11.7822

>  <XCos_Score2>  (215) 
0.2663

>  <XCos_Score3>  (215) 
0.0226

$$$$
C#CC1(O)CCN(Cc2cscc2C)CC1
     RDKit          3D

 16 17  0  0  0  0  0  0  0  0999 V2000
    8.1247   -4.5904   27.6386 C   0  0  0  0  0  0  0  0  0  0  0  0
    8.7102   -5.1522   26.7454 C   0  0  0  0  0  0  0  0  0  0  0  0
    9.4340   -5.8577   25.6382 C   0  0  0  0  0  0  0  0  0  0  0  0
    9.4484   -7.1542   26.0790 O   0  0  0  0  0  0  0  0  0  0  0  0
   10.8425   -5.3337   25.3941 C   0  0  0  0  0  0  0  0  0  0  0  0
   10.7245   -3.8404   25.4129 C   0  0  0  0  0  0  0  0  0  0  0  0
    9.8201   -3.3513   24.3452 N   0  0  0  0  0  0  0  0  0  0  0  0
    9.4872   -1.9493   24.6221 C   0  0  0  0  0  0  0  0  0  0  0  0
   10.6912   -1.0925   24.3301 C   0  0  0  0  0  0  0  0  0  0  0  0
   11.3745   -0.4503   25.3622 C   0  0  0  0  0  0  0  0  0  0  0  0
   12.5782    0.4902   24.6962 S   0  0  0  0  0  0  0  0  0  0  0  0
   12.2634    0.1198   23.0922 C   0  0  0  0  0  0  0  0  0  0  0  0
   11.1812   -0.7581   23.0451 C   0  0  0  0  0  0  0  0  0  0  0  0
   10.6188   -1.2847   21.7597 C   0  0  0  0  0  0  0  0  0  0  0  0
    8.5910   -4.1278   24.0201 C   0  0  0  0  0  0  0  0  0  0  0  0
    8.6323   -5.6317   24.3707 C   0  0  0  0  0  0  0  0  0  0  0  0
  1  2  3  0
  2  3  1  0
  3  4  1  0
  3  5  1  0
  5  6  1  0
  6  7  1  0
  7  8  1  0
  7 15  1  0
  8  9  1  0
  9 10  2  0
 10 11  1  0
 11 12  1  0
 12 13  2  0
 13 14  1  0
 13  9  1  0
 15 16  1  0
 16  3  1  0
M  END
>  <Hit>  (216) 
Mpro-x0387_0

>  <Receptor>  (216) 
Mpro-x0387_0

>  <SCORE>  (216) 
-10.7189

>  <SCORE.norm>  (216) 
-0.66993000000000003

>  <SCORE.heavy>  (216) 
16

>  <OrigSmiles>  (216) 
C#CC1(O)CCN(Cc2cscc2C)CC1

>  <SuCOS_Score>  (216) 
0.59372973620622516

>  <Max_SuCOS_Score>  (216) 
0

>  <Cum_SuCOS_Score>  (216) 
0

>  <TransFSScore_50nM>  (216) 
0.0024919999999999999

>  <TransFSScore_1uM>  (216) 
0.014527999999999999

>  <TransFSScore_10nM>  (216) 
0.016407999999999999

>  <TransFSScore_200nM>  (216) 
0.0065900000000000004

>  <TransFSScore>  (216) 
0.0100045

>  <FeatureSteinScore>  (216) 
0.53317498235406147

>  <XCos_RefMols>  (216) 
x0831_0,x0072_0

>  <XCos_NumHits>  (216) 
2

>  <XCos_Score1>  (216) 
11.8147

>  <XCos_Score2>  (216) 
0.2670

>  <XCos_Score3>  (216) 
0.0226

$$$$
C#CC1(O)CCN(Cc2cscn2)CC1
     RDKit          3D

 15 16  0  0  0  0  0  0  0  0999 V2000
    8.8030   -5.0421   28.8258 C   0  0  0  0  0  0  0  0  0  0  0  0
    9.0434   -5.1706   27.6512 C   0  0  0  0  0  0  0  0  0  0  0  0
    9.3383   -5.3290   26.2101 C   0  0  0  0  0  0  0  0  0  0  0  0
    9.1999   -6.6815   25.8500 O   0  0  0  0  0  0  0  0  0  0  0  0
    8.3000   -4.5476   25.4087 C   0  0  0  0  0  0  0  0  0  0  0  0
    8.8600   -4.2357   24.0355 C   0  0  0  0  0  0  0  0  0  0  0  0
    9.9061   -3.2115   24.1834 N   0  0  0  0  0  0  0  0  0  0  0  0
   10.4556   -2.8427   22.8785 C   0  0  0  0  0  0  0  0  0  0  0  0
   11.5128   -1.7870   23.0639 C   0  0  0  0  0  0  0  0  0  0  0  0
   11.3460   -0.6786   23.8918 C   0  0  0  0  0  0  0  0  0  0  0  0
   12.7489    0.2444   23.7940 S   0  0  0  0  0  0  0  0  0  0  0  0
   13.5115   -0.7911   22.7128 C   0  0  0  0  0  0  0  0  0  0  0  0
   12.7118   -1.8381   22.4195 N   0  0  0  0  0  0  0  0  0  0  0  0
   10.9535   -3.5280   25.1923 C   0  0  0  0  0  0  0  0  0  0  0  0
   10.7928   -4.8843   25.9013 C   0  0  0  0  0  0  0  0  0  0  0  0
  1  2  3  0
  2  3  1  0
  3  4  1  0
  3  5  1  0
  5  6  1  0
  6  7  1  0
  7  8  1  0
  7 14  1  0
  8  9  1  0
  9 10  2  0
 10 11  1  0
 11 12  1  0
 12 13  2  0
 13  9  1  0
 14 15  1  0
 15  3  1  0
M  END
>  <Hit>  (217) 
Mpro-x0387_0

>  <Receptor>  (217) 
Mpro-x0387_0

>  <SCORE>  (217) 
-11.934699999999999

>  <SCORE.norm>  (217) 
-0.79564599999999996

>  <SCORE.heavy>  (217) 
15

>  <OrigSmiles>  (217) 
C#CC1(O)CCN(Cc2cscn2)CC1

>  <SuCOS_Score>  (217) 
0.60075240776678829

>  <Max_SuCOS_Score>  (217) 
0

>  <Cum_SuCOS_Score>  (217) 
0

>  <TransFSScore_50nM>  (217) 
0.0061250000000000002

>  <TransFSScore_1uM>  (217) 
0.050852000000000001

>  <TransFSScore_10nM>  (217) 
0.0065230000000000002

>  <TransFSScore_200nM>  (217) 
0.034168999999999998

>  <TransFSScore>  (217) 
0.024417250000000001

>  <FeatureSteinScore>  (217) 
0.51150056785219988

>  <XCos_RefMols>  (217) 
x0387_0,x1392_0

>  <XCos_NumHits>  (217) 
2

>  <XCos_Score1>  (217) 
10.1355

>  <XCos_Score2>  (217) 
0.1145

>  <XCos_Score3>  (217) 
0.0113

$$$$
C#CC1(O)CCN(Cc2cscn2)CC1
     RDKit          3D

 15 16  0  0  0  0  0  0  0  0999 V2000
    8.7948   -5.0059   28.8629 C   0  0  0  0  0  0  0  0  0  0  0  0
    9.0174   -5.1426   27.6857 C   0  0  0  0  0  0  0  0  0  0  0  0
    9.2902   -5.3109   26.2414 C   0  0  0  0  0  0  0  0  0  0  0  0
    9.1408   -6.6648   25.8915 O   0  0  0  0  0  0  0  0  0  0  0  0
    8.2435   -4.5298   25.4507 C   0  0  0  0  0  0  0  0  0  0  0  0
    8.7844   -4.2285   24.0675 C   0  0  0  0  0  0  0  0  0  0  0  0
    9.8368   -3.2079   24.1937 N   0  0  0  0  0  0  0  0  0  0  0  0
   10.3685   -2.8494   22.8786 C   0  0  0  0  0  0  0  0  0  0  0  0
   11.4186   -1.7827   23.0401 C   0  0  0  0  0  0  0  0  0  0  0  0
   11.2643   -0.6827   23.8815 C   0  0  0  0  0  0  0  0  0  0  0  0
   12.6528    0.2575   23.7484 S   0  0  0  0  0  0  0  0  0  0  0  0
   13.3941   -0.7607   22.6363 C   0  0  0  0  0  0  0  0  0  0  0  0
   12.5979   -1.8148   22.3591 N   0  0  0  0  0  0  0  0  0  0  0  0
   10.8977   -3.5230   25.1889 C   0  0  0  0  0  0  0  0  0  0  0  0
   10.7418   -4.8743   25.9083 C   0  0  0  0  0  0  0  0  0  0  0  0
  1  2  3  0
  2  3  1  0
  3  4  1  0
  3  5  1  0
  5  6  1  0
  6  7  1  0
  7  8  1  0
  7 14  1  0
  8  9  1  0
  9 10  2  0
 10 11  1  0
 11 12  1  0
 12 13  2  0
 13  9  1  0
 14 15  1  0
 15  3  1  0
M  END
>  <Hit>  (218) 
Mpro-x0387_0

>  <Receptor>  (218) 
Mpro-x0387_0

>  <SCORE>  (218) 
-11.9521

>  <SCORE.norm>  (218) 
-0.79680700000000004

>  <SCORE.heavy>  (218) 
15

>  <OrigSmiles>  (218) 
C#CC1(O)CCN(Cc2cscn2)CC1

>  <SuCOS_Score>  (218) 
0.60670191748250768

>  <Max_SuCOS_Score>  (218) 
0

>  <Cum_SuCOS_Score>  (218) 
0

>  <TransFSScore_50nM>  (218) 
0.0053680000000000004

>  <TransFSScore_1uM>  (218) 
0.052391

>  <TransFSScore_10nM>  (218) 
0.0078449999999999995

>  <TransFSScore_200nM>  (218) 
0.034826000000000003

>  <TransFSScore>  (218) 
0.025107499999999998

>  <FeatureSteinScore>  (218) 
0.5325654941721244

>  <XCos_RefMols>  (218) 
x0387_0,x1392_0

>  <XCos_NumHits>  (218) 
2

>  <XCos_Score1>  (218) 
10.3227

>  <XCos_Score2>  (218) 
0.1166

>  <XCos_Score3>  (218) 
0.0113

$$$$
C#CC1(O)CCN(Cc2cscn2)CC1
     RDKit          3D

 15 16  0  0  0  0  0  0  0  0999 V2000
    8.8583   -5.0120   28.8586 C   0  0  0  0  0  0  0  0  0  0  0  0
    9.0740   -5.1434   27.6795 C   0  0  0  0  0  0  0  0  0  0  0  0
    9.3390   -5.3041   26.2329 C   0  0  0  0  0  0  0  0  0  0  0  0
    9.1747   -6.6540   25.8741 O   0  0  0  0  0  0  0  0  0  0  0  0
    8.2967   -4.5071   25.4522 C   0  0  0  0  0  0  0  0  0  0  0  0
    8.8347   -4.2014   24.0688 C   0  0  0  0  0  0  0  0  0  0  0  0
    9.8978   -3.1922   24.1978 N   0  0  0  0  0  0  0  0  0  0  0  0
   10.4275   -2.8296   22.8829 C   0  0  0  0  0  0  0  0  0  0  0  0
   11.4897   -1.7755   23.0476 C   0  0  0  0  0  0  0  0  0  0  0  0
   11.3500   -0.6789   23.8958 C   0  0  0  0  0  0  0  0  0  0  0  0
   12.7484    0.2468   23.7642 S   0  0  0  0  0  0  0  0  0  0  0  0
   13.4751   -0.7730   22.6440 C   0  0  0  0  0  0  0  0  0  0  0  0
   12.6666   -1.8166   22.3630 N   0  0  0  0  0  0  0  0  0  0  0  0
   10.9597   -3.5248   25.1861 C   0  0  0  0  0  0  0  0  0  0  0  0
   10.7935   -4.8795   25.8967 C   0  0  0  0  0  0  0  0  0  0  0  0
  1  2  3  0
  2  3  1  0
  3  4  1  0
  3  5  1  0
  5  6  1  0
  6  7  1  0
  7  8  1  0
  7 14  1  0
  8  9  1  0
  9 10  2  0
 10 11  1  0
 11 12  1  0
 12 13  2  0
 13  9  1  0
 14 15  1  0
 15  3  1  0
M  END
>  <Hit>  (219) 
Mpro-x0387_0

>  <Receptor>  (219) 
Mpro-x0387_0

>  <SCORE>  (219) 
-11.971

>  <SCORE.norm>  (219) 
-0.79806500000000002

>  <SCORE.heavy>  (219) 
15

>  <OrigSmiles>  (219) 
C#CC1(O)CCN(Cc2cscn2)CC1

>  <SuCOS_Score>  (219) 
0.60615585934167426

>  <Max_SuCOS_Score>  (219) 
0

>  <Cum_SuCOS_Score>  (219) 
0

>  <TransFSScore_50nM>  (219) 
0.0057299999999999999

>  <TransFSScore_1uM>  (219) 
0.052819999999999999

>  <TransFSScore_10nM>  (219) 
0.0066410000000000002

>  <TransFSScore_200nM>  (219) 
0.036042999999999999

>  <TransFSScore>  (219) 
0.025308499999999998

>  <FeatureSteinScore>  (219) 
0.52193505572833887

>  <XCos_RefMols>  (219) 
x0387_0,x1392_0

>  <XCos_NumHits>  (219) 
2

>  <XCos_Score1>  (219) 
10.2050

>  <XCos_Score2>  (219) 
0.1153

>  <XCos_Score3>  (219) 
0.0113

$$$$
C#CC1(O)CCN(Cc2cscn2)CC1
     RDKit          3D

 15 16  0  0  0  0  0  0  0  0999 V2000
    8.8922   -4.9800   28.8485 C   0  0  0  0  0  0  0  0  0  0  0  0
    9.1053   -5.1170   27.6696 C   0  0  0  0  0  0  0  0  0  0  0  0
    9.3666   -5.2845   26.2230 C   0  0  0  0  0  0  0  0  0  0  0  0
    9.1866   -6.6334   25.8680 O   0  0  0  0  0  0  0  0  0  0  0  0
    8.3322   -4.4779   25.4416 C   0  0  0  0  0  0  0  0  0  0  0  0
    8.8717   -4.1818   24.0567 C   0  0  0  0  0  0  0  0  0  0  0  0
    9.9462   -3.1842   24.1816 N   0  0  0  0  0  0  0  0  0  0  0  0
   10.4781   -2.8310   22.8652 C   0  0  0  0  0  0  0  0  0  0  0  0
   11.5386   -1.7742   23.0239 C   0  0  0  0  0  0  0  0  0  0  0  0
   11.3903   -0.6645   23.8536 C   0  0  0  0  0  0  0  0  0  0  0  0
   12.7898    0.2594   23.7214 S   0  0  0  0  0  0  0  0  0  0  0  0
   13.5278   -0.7775   22.6245 C   0  0  0  0  0  0  0  0  0  0  0  0
   12.7222   -1.8256   22.3518 N   0  0  0  0  0  0  0  0  0  0  0  0
   11.0056   -3.5261   25.1695 C   0  0  0  0  0  0  0  0  0  0  0  0
   10.8252   -4.8770   25.8838 C   0  0  0  0  0  0  0  0  0  0  0  0
  1  2  3  0
  2  3  1  0
  3  4  1  0
  3  5  1  0
  5  6  1  0
  6  7  1  0
  7  8  1  0
  7 14  1  0
  8  9  1  0
  9 10  2  0
 10 11  1  0
 11 12  1  0
 12 13  2  0
 13  9  1  0
 14 15  1  0
 15  3  1  0
M  END
>  <Hit>  (220) 
Mpro-x0387_0

>  <Receptor>  (220) 
Mpro-x0387_0

>  <SCORE>  (220) 
-11.973699999999999

>  <SCORE.norm>  (220) 
-0.79825000000000002

>  <SCORE.heavy>  (220) 
15

>  <OrigSmiles>  (220) 
C#CC1(O)CCN(Cc2cscn2)CC1

>  <SuCOS_Score>  (220) 
0.60089727492325418

>  <Max_SuCOS_Score>  (220) 
0

>  <Cum_SuCOS_Score>  (220) 
0

>  <TransFSScore_50nM>  (220) 
0.0055430000000000002

>  <TransFSScore_1uM>  (220) 
0.052802000000000002

>  <TransFSScore_10nM>  (220) 
0.0060029999999999997

>  <TransFSScore_200nM>  (220) 
0.035812999999999998

>  <TransFSScore>  (220) 
0.02504025

>  <FeatureSteinScore>  (220) 
0.51492875094354418

>  <XCos_RefMols>  (220) 
x0387_0,x1392_0

>  <XCos_NumHits>  (220) 
2

>  <XCos_Score1>  (220) 
10.1118

>  <XCos_Score2>  (220) 
0.1143

>  <XCos_Score3>  (220) 
0.0113

$$$$
C#CC1(O)CCN(Cc2cscn2)CC1
     RDKit          3D

 15 16  0  0  0  0  0  0  0  0999 V2000
    9.1345   -3.9089   28.2302 C   0  0  0  0  0  0  0  0  0  0  0  0
    9.1467   -4.5969   27.2390 C   0  0  0  0  0  0  0  0  0  0  0  0
    9.1582   -5.4549   26.0183 C   0  0  0  0  0  0  0  0  0  0  0  0
    8.9563   -6.6901   26.5682 O   0  0  0  0  0  0  0  0  0  0  0  0
   10.4756   -5.4050   25.2659 C   0  0  0  0  0  0  0  0  0  0  0  0
   10.8630   -3.9572   25.2035 C   0  0  0  0  0  0  0  0  0  0  0  0
    9.8353   -3.1384   24.5259 N   0  0  0  0  0  0  0  0  0  0  0  0
   10.0486   -1.7260   24.8200 C   0  0  0  0  0  0  0  0  0  0  0  0
   11.2453   -1.2462   24.0560 C   0  0  0  0  0  0  0  0  0  0  0  0
   11.7683   -1.9213   22.9559 C   0  0  0  0  0  0  0  0  0  0  0  0
   13.0817   -1.0327   22.3937 S   0  0  0  0  0  0  0  0  0  0  0  0
   12.9382    0.1668   23.5617 C   0  0  0  0  0  0  0  0  0  0  0  0
   11.8983   -0.0961   24.3810 N   0  0  0  0  0  0  0  0  0  0  0  0
    8.3929   -3.5042   24.6156 C   0  0  0  0  0  0  0  0  0  0  0  0
    8.0672   -4.9368   25.1033 C   0  0  0  0  0  0  0  0  0  0  0  0
  1  2  3  0
  2  3  1  0
  3  4  1  0
  3  5  1  0
  5  6  1  0
  6  7  1  0
  7  8  1  0
  7 14  1  0
  8  9  1  0
  9 10  2  0
 10 11  1  0
 11 12  1  0
 12 13  2  0
 13  9  1  0
 14 15  1  0
 15  3  1  0
M  END
>  <Hit>  (221) 
Mpro-x0387_0

>  <Receptor>  (221) 
Mpro-x0387_0

>  <SCORE>  (221) 
-9.9402899999999992

>  <SCORE.norm>  (221) 
-0.662686

>  <SCORE.heavy>  (221) 
15

>  <OrigSmiles>  (221) 
C#CC1(O)CCN(Cc2cscn2)CC1

>  <SuCOS_Score>  (221) 
0.6326860297514223

>  <Max_SuCOS_Score>  (221) 
0

>  <Cum_SuCOS_Score>  (221) 
0

>  <TransFSScore_50nM>  (221) 
0.005032

>  <TransFSScore_1uM>  (221) 
0.094233999999999998

>  <TransFSScore_10nM>  (221) 
0.010936

>  <TransFSScore_200nM>  (221) 
0.19006799999999999

>  <TransFSScore>  (221) 
0.075067499999999995

>  <FeatureSteinScore>  (221) 
0.53152457886484716

>  <XCos_RefMols>  (221) 
x0305_0,x0770_0

>  <XCos_NumHits>  (221) 
2

>  <XCos_Score1>  (221) 
10.3540

>  <XCos_Score2>  (221) 
0.1755

>  <XCos_Score3>  (221) 
0.0169

$$$$
C#CC1(O)CCN(Cc2csnn2)CC1
     RDKit          3D

 15 16  0  0  0  0  0  0  0  0999 V2000
    7.7173   -6.2819   27.8242 C   0  0  0  0  0  0  0  0  0  0  0  0
    8.2292   -5.9390   26.7876 C   0  0  0  0  0  0  0  0  0  0  0  0
    8.8571   -5.5180   25.5147 C   0  0  0  0  0  0  0  0  0  0  0  0
    9.6608   -6.5707   25.0377 O   0  0  0  0  0  0  0  0  0  0  0  0
    7.7487   -5.2188   24.4951 C   0  0  0  0  0  0  0  0  0  0  0  0
    8.2803   -4.5081   23.2499 C   0  0  0  0  0  0  0  0  0  0  0  0
    9.1707   -3.3587   23.5615 N   0  0  0  0  0  0  0  0  0  0  0  0
    9.1342   -2.1808   22.6710 C   0  0  0  0  0  0  0  0  0  0  0  0
   10.3805   -1.3510   22.6454 C   0  0  0  0  0  0  0  0  0  0  0  0
   10.8309   -0.6118   23.7450 C   0  0  0  0  0  0  0  0  0  0  0  0
   12.2626    0.0838   23.2317 S   0  0  0  0  0  0  0  0  0  0  0  0
   12.2753   -0.5442   21.6993 N   0  0  0  0  0  0  0  0  0  0  0  0
   11.1932   -1.2974   21.5448 N   0  0  0  0  0  0  0  0  0  0  0  0
    9.2967   -3.0266   24.9905 C   0  0  0  0  0  0  0  0  0  0  0  0
    9.7516   -4.2749   25.7700 C   0  0  0  0  0  0  0  0  0  0  0  0
  1  2  3  0
  2  3  1  0
  3  4  1  0
  3  5  1  0
  5  6  1  0
  6  7  1  0
  7  8  1  0
  7 14  1  0
  8  9  1  0
  9 10  2  0
 10 11  1  0
 11 12  1  0
 12 13  2  0
 13  9  1  0
 14 15  1  0
 15  3  1  0
M  END
>  <Hit>  (222) 
Mpro-x0387_0

>  <Receptor>  (222) 
Mpro-x1249_0

>  <SCORE>  (222) 
-11.5494

>  <SCORE.norm>  (222) 
-0.76996299999999995

>  <SCORE.heavy>  (222) 
15

>  <OrigSmiles>  (222) 
C#CC1(O)CCN(Cc2csnn2)CC1

>  <SuCOS_Score>  (222) 
0.38842532235614097

>  <Max_SuCOS_Score>  (222) 
0

>  <Cum_SuCOS_Score>  (222) 
0

>  <TransFSScore_50nM>  (222) 
0.002062

>  <TransFSScore_1uM>  (222) 
0.010271000000000001

>  <TransFSScore_10nM>  (222) 
0.083874000000000004

>  <TransFSScore_200nM>  (222) 
0.019182999999999999

>  <TransFSScore>  (222) 
0.028847499999999998

>  <FeatureSteinScore>  (222) 
0.386387442492091

>  <XCos_RefMols>  (222) 
x1392_0,x1382_0,x1385_0

>  <XCos_NumHits>  (222) 
3

>  <XCos_Score1>  (222) 
11.4955

>  <XCos_Score2>  (222) 
0.1299

>  <XCos_Score3>  (222) 
0.0113

$$$$
C#CC1(O)CCN(Cc2csnn2)CC1
     RDKit          3D

 15 16  0  0  0  0  0  0  0  0999 V2000
    7.5466   -6.2207   27.2291 C   0  0  0  0  0  0  0  0  0  0  0  0
    8.1076   -5.8013   26.2475 C   0  0  0  0  0  0  0  0  0  0  0  0
    8.7961   -5.2868   25.0421 C   0  0  0  0  0  0  0  0  0  0  0  0
    9.4992   -6.3457   24.4369 O   0  0  0  0  0  0  0  0  0  0  0  0
    7.7407   -4.7496   24.0647 C   0  0  0  0  0  0  0  0  0  0  0  0
    8.3617   -3.9431   22.9236 C   0  0  0  0  0  0  0  0  0  0  0  0
    9.3566   -2.9386   23.3844 N   0  0  0  0  0  0  0  0  0  0  0  0
    9.4528   -1.6590   22.6528 C   0  0  0  0  0  0  0  0  0  0  0  0
   10.8386   -1.1226   22.4682 C   0  0  0  0  0  0  0  0  0  0  0  0
   11.5304   -0.4285   23.4672 C   0  0  0  0  0  0  0  0  0  0  0  0
   13.0252   -0.0949   22.7956 S   0  0  0  0  0  0  0  0  0  0  0  0
   12.7694   -0.8093   21.3236 N   0  0  0  0  0  0  0  0  0  0  0  0
   11.5436   -1.3185   21.3109 N   0  0  0  0  0  0  0  0  0  0  0  0
    9.4903   -2.8060   24.8448 C   0  0  0  0  0  0  0  0  0  0  0  0
    9.8053   -4.1831   25.4590 C   0  0  0  0  0  0  0  0  0  0  0  0
  1  2  3  0
  2  3  1  0
  3  4  1  0
  3  5  1  0
  5  6  1  0
  6  7  1  0
  7  8  1  0
  7 14  1  0
  8  9  1  0
  9 10  2  0
 10 11  1  0
 11 12  1  0
 12 13  2  0
 13  9  1  0
 14 15  1  0
 15  3  1  0
M  END
>  <Hit>  (223) 
Mpro-x0387_0

>  <Receptor>  (223) 
Mpro-x0874_0

>  <SCORE>  (223) 
-11.6151

>  <SCORE.norm>  (223) 
-0.77433700000000005

>  <SCORE.heavy>  (223) 
15

>  <OrigSmiles>  (223) 
C#CC1(O)CCN(Cc2csnn2)CC1

>  <SuCOS_Score>  (223) 
0.40315273190238754

>  <Max_SuCOS_Score>  (223) 
0

>  <Cum_SuCOS_Score>  (223) 
0

>  <TransFSScore_50nM>  (223) 
0.0025110000000000002

>  <TransFSScore_1uM>  (223) 
0.011395000000000001

>  <TransFSScore_10nM>  (223) 
0.15135599999999999

>  <TransFSScore_200nM>  (223) 
0.021072

>  <TransFSScore>  (223) 
0.0465835

>  <FeatureSteinScore>  (223) 
0.34280718623713224

>  <XCos_RefMols>  (223) 
x1392_0,x0874_0

>  <XCos_NumHits>  (223) 
2

>  <XCos_Score1>  (223) 
10.6665

>  <XCos_Score2>  (223) 
0.0603

>  <XCos_Score3>  (223) 
0.0056

$$$$
C#CC1(O)CCN(Cc2csnn2)CC1
     RDKit          3D

 15 16  0  0  0  0  0  0  0  0999 V2000
    7.5074   -6.2056   27.1450 C   0  0  0  0  0  0  0  0  0  0  0  0
    8.0853   -5.7691   26.1808 C   0  0  0  0  0  0  0  0  0  0  0  0
    8.7942   -5.2333   24.9967 C   0  0  0  0  0  0  0  0  0  0  0  0
    9.5171   -6.2787   24.3916 O   0  0  0  0  0  0  0  0  0  0  0  0
    7.7548   -4.6901   24.0055 C   0  0  0  0  0  0  0  0  0  0  0  0
    8.3929   -3.8637   22.8883 C   0  0  0  0  0  0  0  0  0  0  0  0
    9.3709   -2.8586   23.3828 N   0  0  0  0  0  0  0  0  0  0  0  0
    9.4725   -1.5685   22.6708 C   0  0  0  0  0  0  0  0  0  0  0  0
   10.8604   -1.0341   22.4962 C   0  0  0  0  0  0  0  0  0  0  0  0
   11.5212   -0.2846   23.4760 C   0  0  0  0  0  0  0  0  0  0  0  0
   13.0325    0.0224   22.8288 S   0  0  0  0  0  0  0  0  0  0  0  0
   12.8206   -0.7693   21.3898 N   0  0  0  0  0  0  0  0  0  0  0  0
   11.5979   -1.2859   21.3704 N   0  0  0  0  0  0  0  0  0  0  0  0
    9.4742   -2.7452   24.8472 C   0  0  0  0  0  0  0  0  0  0  0  0
    9.7867   -4.1283   25.4490 C   0  0  0  0  0  0  0  0  0  0  0  0
  1  2  3  0
  2  3  1  0
  3  4  1  0
  3  5  1  0
  5  6  1  0
  6  7  1  0
  7  8  1  0
  7 14  1  0
  8  9  1  0
  9 10  2  0
 10 11  1  0
 11 12  1  0
 12 13  2  0
 13  9  1  0
 14 15  1  0
 15  3  1  0
M  END
>  <Hit>  (224) 
Mpro-x0387_0

>  <Receptor>  (224) 
Mpro-x0874_0

>  <SCORE>  (224) 
-11.7972

>  <SCORE.norm>  (224) 
-0.78647900000000004

>  <SCORE.heavy>  (224) 
15

>  <OrigSmiles>  (224) 
C#CC1(O)CCN(Cc2csnn2)CC1

>  <SuCOS_Score>  (224) 
0.40666358390034812

>  <Max_SuCOS_Score>  (224) 
0

>  <Cum_SuCOS_Score>  (224) 
0

>  <TransFSScore_50nM>  (224) 
0.0021640000000000001

>  <TransFSScore_1uM>  (224) 
0.011108

>  <TransFSScore_10nM>  (224) 
0.15690999999999999

>  <TransFSScore_200nM>  (224) 
0.018477

>  <TransFSScore>  (224) 
0.047164749999999998

>  <FeatureSteinScore>  (224) 
0.35558608562268162

>  <XCos_RefMols>  (224) 
x1392_0,x0874_0

>  <XCos_NumHits>  (224) 
2

>  <XCos_Score1>  (224) 
10.6540

>  <XCos_Score2>  (224) 
0.0602

>  <XCos_Score3>  (224) 
0.0056

$$$$
C#CC1(O)CCN(Cc2csnn2)CC1
     RDKit          3D

 15 16  0  0  0  0  0  0  0  0999 V2000
    7.7469   -6.2550   27.5521 C   0  0  0  0  0  0  0  0  0  0  0  0
    8.2537   -5.8739   26.5264 C   0  0  0  0  0  0  0  0  0  0  0  0
    8.8754   -5.4059   25.2669 C   0  0  0  0  0  0  0  0  0  0  0  0
    9.6646   -6.4452   24.7392 O   0  0  0  0  0  0  0  0  0  0  0  0
    7.7617   -5.0534   24.2703 C   0  0  0  0  0  0  0  0  0  0  0  0
    8.2902   -4.2961   23.0515 C   0  0  0  0  0  0  0  0  0  0  0  0
    9.1945   -3.1694   23.4035 N   0  0  0  0  0  0  0  0  0  0  0  0
    9.1624   -1.9548   22.5636 C   0  0  0  0  0  0  0  0  0  0  0  0
   10.4384   -1.1729   22.5088 C   0  0  0  0  0  0  0  0  0  0  0  0
   10.9290   -0.4314   23.5896 C   0  0  0  0  0  0  0  0  0  0  0  0
   12.3794    0.2006   23.0477 S   0  0  0  0  0  0  0  0  0  0  0  0
   12.3507   -0.4548   21.5272 N   0  0  0  0  0  0  0  0  0  0  0  0
   11.2396   -1.1697   21.3985 N   0  0  0  0  0  0  0  0  0  0  0  0
    9.3354   -2.8989   24.8440 C   0  0  0  0  0  0  0  0  0  0  0  0
    9.7843   -4.1832   25.5664 C   0  0  0  0  0  0  0  0  0  0  0  0
  1  2  3  0
  2  3  1  0
  3  4  1  0
  3  5  1  0
  5  6  1  0
  6  7  1  0
  7  8  1  0
  7 14  1  0
  8  9  1  0
  9 10  2  0
 10 11  1  0
 11 12  1  0
 12 13  2  0
 13  9  1  0
 14 15  1  0
 15  3  1  0
M  END
>  <Hit>  (225) 
Mpro-x0387_0

>  <Receptor>  (225) 
Mpro-x1249_0

>  <SCORE>  (225) 
-11.9947

>  <SCORE.norm>  (225) 
-0.79964500000000005

>  <SCORE.heavy>  (225) 
15

>  <OrigSmiles>  (225) 
C#CC1(O)CCN(Cc2csnn2)CC1

>  <SuCOS_Score>  (225) 
0.37340387509756201

>  <Max_SuCOS_Score>  (225) 
0

>  <Cum_SuCOS_Score>  (225) 
0

>  <TransFSScore_50nM>  (225) 
0.001812

>  <TransFSScore_1uM>  (225) 
0.0091380000000000003

>  <TransFSScore_10nM>  (225) 
0.126029

>  <TransFSScore_200nM>  (225) 
0.013044999999999999

>  <TransFSScore>  (225) 
0.037505999999999998

>  <FeatureSteinScore>  (225) 
0.36885366642978173

>  <XCos_RefMols>  (225) 
x1392_0,x1382_0

>  <XCos_NumHits>  (225) 
2

>  <XCos_Score1>  (225) 
11.1563

>  <XCos_Score2>  (225) 
0.1261

>  <XCos_Score3>  (225) 
0.0113

$$$$
C#CC1(O)CCN(Cc2csnn2)CC1
     RDKit          3D

 15 16  0  0  0  0  0  0  0  0999 V2000
    7.7444   -6.3145   27.4853 C   0  0  0  0  0  0  0  0  0  0  0  0
    8.2603   -5.9118   26.4725 C   0  0  0  0  0  0  0  0  0  0  0  0
    8.8933   -5.4170   25.2290 C   0  0  0  0  0  0  0  0  0  0  0  0
    9.6763   -6.4494   24.6788 O   0  0  0  0  0  0  0  0  0  0  0  0
    7.7884   -5.0289   24.2357 C   0  0  0  0  0  0  0  0  0  0  0  0
    8.3305   -4.2451   23.0399 C   0  0  0  0  0  0  0  0  0  0  0  0
    9.2427   -3.1360   23.4258 N   0  0  0  0  0  0  0  0  0  0  0  0
    9.2262   -1.8999   22.6175 C   0  0  0  0  0  0  0  0  0  0  0  0
   10.5295   -1.1677   22.5294 C   0  0  0  0  0  0  0  0  0  0  0  0
   11.0959   -0.4801   23.6086 C   0  0  0  0  0  0  0  0  0  0  0  0
   12.5464    0.1106   23.0220 S   0  0  0  0  0  0  0  0  0  0  0  0
   12.4256   -0.4957   21.4857 N   0  0  0  0  0  0  0  0  0  0  0  0
   11.2817   -1.1617   21.3854 N   0  0  0  0  0  0  0  0  0  0  0  0
    9.3779   -2.9042   24.8736 C   0  0  0  0  0  0  0  0  0  0  0  0
    9.8112   -4.2107   25.5650 C   0  0  0  0  0  0  0  0  0  0  0  0
  1  2  3  0
  2  3  1  0
  3  4  1  0
  3  5  1  0
  5  6  1  0
  6  7  1  0
  7  8  1  0
  7 14  1  0
  8  9  1  0
  9 10  2  0
 10 11  1  0
 11 12  1  0
 12 13  2  0
 13  9  1  0
 14 15  1  0
 15  3  1  0
M  END
>  <Hit>  (226) 
Mpro-x0387_0

>  <Receptor>  (226) 
Mpro-x1249_0

>  <SCORE>  (226) 
-12.0565

>  <SCORE.norm>  (226) 
-0.80376800000000004

>  <SCORE.heavy>  (226) 
15

>  <OrigSmiles>  (226) 
C#CC1(O)CCN(Cc2csnn2)CC1

>  <SuCOS_Score>  (226) 
0.38649674372187681

>  <Max_SuCOS_Score>  (226) 
0

>  <Cum_SuCOS_Score>  (226) 
0

>  <TransFSScore_50nM>  (226) 
0.0016410000000000001

>  <TransFSScore_1uM>  (226) 
0.0089029999999999995

>  <TransFSScore_10nM>  (226) 
0.14274999999999999

>  <TransFSScore_200nM>  (226) 
0.014474000000000001

>  <TransFSScore>  (226) 
0.041941999999999993

>  <FeatureSteinScore>  (226) 
0.36272582481317917

>  <XCos_RefMols>  (226) 
x1392_0,x1382_0

>  <XCos_NumHits>  (226) 
2

>  <XCos_Score1>  (226) 
11.0019

>  <XCos_Score2>  (226) 
0.1243

>  <XCos_Score3>  (226) 
0.0113

$$$$
C#CC1(O)CCN(Cc2csnn2)CC1
     RDKit          3D

 15 16  0  0  0  0  0  0  0  0999 V2000
    7.7478   -6.2634   27.5408 C   0  0  0  0  0  0  0  0  0  0  0  0
    8.2471   -5.8870   26.5097 C   0  0  0  0  0  0  0  0  0  0  0  0
    8.8597   -5.4252   25.2435 C   0  0  0  0  0  0  0  0  0  0  0  0
    9.6294   -6.4737   24.7052 O   0  0  0  0  0  0  0  0  0  0  0  0
    7.7388   -5.0572   24.2606 C   0  0  0  0  0  0  0  0  0  0  0  0
    8.2624   -4.3051   23.0365 C   0  0  0  0  0  0  0  0  0  0  0  0
    9.1851   -3.1904   23.3790 N   0  0  0  0  0  0  0  0  0  0  0  0
    9.1585   -1.9744   22.5410 C   0  0  0  0  0  0  0  0  0  0  0  0
   10.4316   -1.1867   22.5043 C   0  0  0  0  0  0  0  0  0  0  0  0
   10.9162   -0.4634   23.6000 C   0  0  0  0  0  0  0  0  0  0  0  0
   12.3657    0.1841   23.0741 S   0  0  0  0  0  0  0  0  0  0  0  0
   12.3438   -0.4433   21.5416 N   0  0  0  0  0  0  0  0  0  0  0  0
   11.2359   -1.1599   21.3967 N   0  0  0  0  0  0  0  0  0  0  0  0
    9.3465   -2.9237   24.8180 C   0  0  0  0  0  0  0  0  0  0  0  0
    9.7876   -4.2145   25.5336 C   0  0  0  0  0  0  0  0  0  0  0  0
  1  2  3  0
  2  3  1  0
  3  4  1  0
  3  5  1  0
  5  6  1  0
  6  7  1  0
  7  8  1  0
  7 14  1  0
  8  9  1  0
  9 10  2  0
 10 11  1  0
 11 12  1  0
 12 13  2  0
 13  9  1  0
 14 15  1  0
 15  3  1  0
M  END
>  <Hit>  (227) 
Mpro-x0387_0

>  <Receptor>  (227) 
Mpro-x1249_0

>  <SCORE>  (227) 
-12.098000000000001

>  <SCORE.norm>  (227) 
-0.80653600000000003

>  <SCORE.heavy>  (227) 
15

>  <OrigSmiles>  (227) 
C#CC1(O)CCN(Cc2csnn2)CC1

>  <SuCOS_Score>  (227) 
0.37085510834311775

>  <Max_SuCOS_Score>  (227) 
0

>  <Cum_SuCOS_Score>  (227) 
0

>  <TransFSScore_50nM>  (227) 
0.0019620000000000002

>  <TransFSScore_1uM>  (227) 
0.0094459999999999995

>  <TransFSScore_10nM>  (227) 
0.12739600000000001

>  <TransFSScore_200nM>  (227) 
0.012344000000000001

>  <TransFSScore>  (227) 
0.037787000000000001

>  <FeatureSteinScore>  (227) 
0.35513732328844139

>  <XCos_RefMols>  (227) 
x1392_0,x1382_0

>  <XCos_NumHits>  (227) 
2

>  <XCos_Score1>  (227) 
11.1130

>  <XCos_Score2>  (227) 
0.0628

>  <XCos_Score3>  (227) 
0.0056

$$$$
C#CC1(O)CCN(Cc2csnn2)CC1
     RDKit          3D

 15 16  0  0  0  0  0  0  0  0999 V2000
    7.7794   -6.1233   27.2769 C   0  0  0  0  0  0  0  0  0  0  0  0
    8.2702   -5.7407   26.2441 C   0  0  0  0  0  0  0  0  0  0  0  0
    8.8731   -5.2705   24.9763 C   0  0  0  0  0  0  0  0  0  0  0  0
    9.4976   -6.3606   24.3413 O   0  0  0  0  0  0  0  0  0  0  0  0
    7.7571   -4.7244   24.0740 C   0  0  0  0  0  0  0  0  0  0  0  0
    8.3055   -3.9590   22.8691 C   0  0  0  0  0  0  0  0  0  0  0  0
    9.3598   -2.9732   23.2264 N   0  0  0  0  0  0  0  0  0  0  0  0
    9.4304   -1.7122   22.4606 C   0  0  0  0  0  0  0  0  0  0  0  0
   10.7867   -1.0834   22.3742 C   0  0  0  0  0  0  0  0  0  0  0  0
   11.3218   -0.2755   23.3839 C   0  0  0  0  0  0  0  0  0  0  0  0
   12.8504    0.1288   22.8393 S   0  0  0  0  0  0  0  0  0  0  0  0
   12.7978   -0.6958   21.4041 N   0  0  0  0  0  0  0  0  0  0  0  0
   11.6187   -1.2978   21.3082 N   0  0  0  0  0  0  0  0  0  0  0  0
    9.6136   -2.8144   24.6681 C   0  0  0  0  0  0  0  0  0  0  0  0
    9.9409   -4.1868   25.2865 C   0  0  0  0  0  0  0  0  0  0  0  0
  1  2  3  0
  2  3  1  0
  3  4  1  0
  3  5  1  0
  5  6  1  0
  6  7  1  0
  7  8  1  0
  7 14  1  0
  8  9  1  0
  9 10  2  0
 10 11  1  0
 11 12  1  0
 12 13  2  0
 13  9  1  0
 14 15  1  0
 15  3  1  0
M  END
>  <Hit>  (228) 
Mpro-x0387_0

>  <Receptor>  (228) 
Mpro-x0874_0

>  <SCORE>  (228) 
-12.128299999999999

>  <SCORE.norm>  (228) 
-0.80855299999999997

>  <SCORE.heavy>  (228) 
15

>  <OrigSmiles>  (228) 
C#CC1(O)CCN(Cc2csnn2)CC1

>  <SuCOS_Score>  (228) 
0.3829263748296558

>  <Max_SuCOS_Score>  (228) 
0

>  <Cum_SuCOS_Score>  (228) 
0

>  <TransFSScore_50nM>  (228) 
0.0019599999999999999

>  <TransFSScore_1uM>  (228) 
0.011946

>  <TransFSScore_10nM>  (228) 
0.22983999999999999

>  <TransFSScore_200nM>  (228) 
0.017399000000000001

>  <TransFSScore>  (228) 
0.065286250000000004

>  <FeatureSteinScore>  (228) 
0.32277060811152453

>  <XCos_RefMols>  (228) 
x1392_0,x0874_0

>  <XCos_NumHits>  (228) 
2

>  <XCos_Score1>  (228) 
10.9572

>  <XCos_Score2>  (228) 
0.0619

>  <XCos_Score3>  (228) 
0.0056

$$$$
C#CC1(O)CCN(Cc2csnn2)CC1
     RDKit          3D

 15 16  0  0  0  0  0  0  0  0999 V2000
    7.6981   -6.0799   27.1000 C   0  0  0  0  0  0  0  0  0  0  0  0
    8.2088   -5.6859   26.0811 C   0  0  0  0  0  0  0  0  0  0  0  0
    8.8358   -5.2016   24.8304 C   0  0  0  0  0  0  0  0  0  0  0  0
    9.4112   -6.2974   24.1598 O   0  0  0  0  0  0  0  0  0  0  0  0
    7.7482   -4.5749   23.9459 C   0  0  0  0  0  0  0  0  0  0  0  0
    8.3341   -3.7957   22.7680 C   0  0  0  0  0  0  0  0  0  0  0  0
    9.4317   -2.8719   23.1592 N   0  0  0  0  0  0  0  0  0  0  0  0
    9.5619   -1.5904   22.4362 C   0  0  0  0  0  0  0  0  0  0  0  0
   10.9467   -1.0246   22.3679 C   0  0  0  0  0  0  0  0  0  0  0  0
   11.4867   -0.1998   23.3612 C   0  0  0  0  0  0  0  0  0  0  0  0
   13.0473    0.1157   22.8494 S   0  0  0  0  0  0  0  0  0  0  0  0
   13.0011   -0.7640   21.4471 N   0  0  0  0  0  0  0  0  0  0  0  0
   11.7998   -1.3182   21.3380 N   0  0  0  0  0  0  0  0  0  0  0  0
    9.6889   -2.7733   24.6056 C   0  0  0  0  0  0  0  0  0  0  0  0
    9.9513   -4.1791   25.1779 C   0  0  0  0  0  0  0  0  0  0  0  0
  1  2  3  0
  2  3  1  0
  3  4  1  0
  3  5  1  0
  5  6  1  0
  6  7  1  0
  7  8  1  0
  7 14  1  0
  8  9  1  0
  9 10  2  0
 10 11  1  0
 11 12  1  0
 12 13  2  0
 13  9  1  0
 14 15  1  0
 15  3  1  0
M  END
>  <Hit>  (229) 
Mpro-x0387_0

>  <Receptor>  (229) 
Mpro-x0874_0

>  <SCORE>  (229) 
-12.3344

>  <SCORE.norm>  (229) 
-0.82229099999999999

>  <SCORE.heavy>  (229) 
15

>  <OrigSmiles>  (229) 
C#CC1(O)CCN(Cc2csnn2)CC1

>  <SuCOS_Score>  (229) 
0.38617997525680092

>  <Max_SuCOS_Score>  (229) 
0

>  <Cum_SuCOS_Score>  (229) 
0

>  <TransFSScore_50nM>  (229) 
0.0022920000000000002

>  <TransFSScore_1uM>  (229) 
0.012312

>  <TransFSScore_10nM>  (229) 
0.22584199999999999

>  <TransFSScore_200nM>  (229) 
0.017725000000000001

>  <TransFSScore>  (229) 
0.064542749999999996

>  <FeatureSteinScore>  (229) 
0.30882556463602939

>  <XCos_RefMols>  (229) 
x1392_0,x0874_0

>  <XCos_NumHits>  (229) 
2

>  <XCos_Score1>  (229) 
10.7957

>  <XCos_Score2>  (229) 
0.0610

>  <XCos_Score3>  (229) 
0.0056

$$$$
C#CC1(O)CCN(Cc2csnn2)CC1
     RDKit          3D

 15 16  0  0  0  0  0  0  0  0999 V2000
    8.0650   -6.0033   27.1845 C   0  0  0  0  0  0  0  0  0  0  0  0
    8.4478   -5.6287   26.1041 C   0  0  0  0  0  0  0  0  0  0  0  0
    8.9179   -5.1682   24.7779 C   0  0  0  0  0  0  0  0  0  0  0  0
    9.3185   -6.2890   24.0264 O   0  0  0  0  0  0  0  0  0  0  0  0
    7.7569   -4.4619   24.0629 C   0  0  0  0  0  0  0  0  0  0  0  0
    8.2159   -3.7054   22.8159 C   0  0  0  0  0  0  0  0  0  0  0  0
    9.4159   -2.8584   23.0479 N   0  0  0  0  0  0  0  0  0  0  0  0
    9.5230   -1.5780   22.3192 C   0  0  0  0  0  0  0  0  0  0  0  0
   10.8856   -0.9572   22.3001 C   0  0  0  0  0  0  0  0  0  0  0  0
   11.3498   -0.0984   23.3029 C   0  0  0  0  0  0  0  0  0  0  0  0
   12.9166    0.2738   22.8517 S   0  0  0  0  0  0  0  0  0  0  0  0
   12.9647   -0.6249   21.4616 N   0  0  0  0  0  0  0  0  0  0  0  0
   11.7923   -1.2289   21.3109 N   0  0  0  0  0  0  0  0  0  0  0  0
    9.8848   -2.7959   24.4423 C   0  0  0  0  0  0  0  0  0  0  0  0
   10.1356   -4.2232   24.9645 C   0  0  0  0  0  0  0  0  0  0  0  0
  1  2  3  0
  2  3  1  0
  3  4  1  0
  3  5  1  0
  5  6  1  0
  6  7  1  0
  7  8  1  0
  7 14  1  0
  8  9  1  0
  9 10  2  0
 10 11  1  0
 11 12  1  0
 12 13  2  0
 13  9  1  0
 14 15  1  0
 15  3  1  0
M  END
>  <Hit>  (230) 
Mpro-x0387_0

>  <Receptor>  (230) 
Mpro-x0874_0

>  <SCORE>  (230) 
-12.638

>  <SCORE.norm>  (230) 
-0.84253299999999998

>  <SCORE.heavy>  (230) 
15

>  <OrigSmiles>  (230) 
C#CC1(O)CCN(Cc2csnn2)CC1

>  <SuCOS_Score>  (230) 
0.37315955981783405

>  <Max_SuCOS_Score>  (230) 
0

>  <Cum_SuCOS_Score>  (230) 
0

>  <TransFSScore_50nM>  (230) 
0.0019109999999999999

>  <TransFSScore_1uM>  (230) 
0.013252

>  <TransFSScore_10nM>  (230) 
0.25262800000000002

>  <TransFSScore_200nM>  (230) 
0.015134999999999999

>  <TransFSScore>  (230) 
0.070731500000000003

>  <FeatureSteinScore>  (230) 
0.29258326291829467

>  <XCos_RefMols>  (230) 
x1392_0,x0874_0

>  <XCos_NumHits>  (230) 
2

>  <XCos_Score1>  (230) 
10.8637

>  <XCos_Score2>  (230) 
0.0000

>  <XCos_Score3>  (230) 
0.0000

$$$$
C#CC1(O)CCN(Cc2csnn2)CC1
     RDKit          3D

 15 16  0  0  0  0  0  0  0  0999 V2000
    7.9161   -6.1361   27.3556 C   0  0  0  0  0  0  0  0  0  0  0  0
    8.4044   -5.7321   26.3297 C   0  0  0  0  0  0  0  0  0  0  0  0
    9.0036   -5.2365   25.0698 C   0  0  0  0  0  0  0  0  0  0  0  0
    9.4915   -6.3360   24.3385 O   0  0  0  0  0  0  0  0  0  0  0  0
    7.9150   -4.5233   24.2549 C   0  0  0  0  0  0  0  0  0  0  0  0
    8.4919   -3.7338   23.0793 C   0  0  0  0  0  0  0  0  0  0  0  0
    9.6524   -2.8825   23.4531 N   0  0  0  0  0  0  0  0  0  0  0  0
    9.8203   -1.5845   22.7685 C   0  0  0  0  0  0  0  0  0  0  0  0
   11.2357   -1.1432   22.5577 C   0  0  0  0  0  0  0  0  0  0  0  0
   11.9959   -0.5104   23.5478 C   0  0  0  0  0  0  0  0  0  0  0  0
   13.4951   -0.2733   22.8456 S   0  0  0  0  0  0  0  0  0  0  0  0
   13.1579   -0.9508   21.3726 N   0  0  0  0  0  0  0  0  0  0  0  0
   11.8997   -1.3738   21.3827 N   0  0  0  0  0  0  0  0  0  0  0  0
    9.9745   -2.8490   24.8895 C   0  0  0  0  0  0  0  0  0  0  0  0
   10.1855   -4.2861   25.4024 C   0  0  0  0  0  0  0  0  0  0  0  0
  1  2  3  0
  2  3  1  0
  3  4  1  0
  3  5  1  0
  5  6  1  0
  6  7  1  0
  7  8  1  0
  7 14  1  0
  8  9  1  0
  9 10  2  0
 10 11  1  0
 11 12  1  0
 12 13  2  0
 13  9  1  0
 14 15  1  0
 15  3  1  0
M  END
>  <Hit>  (231) 
Mpro-x0387_0

>  <Receptor>  (231) 
Mpro-x0305_0

>  <SCORE>  (231) 
-12.6906

>  <SCORE.norm>  (231) 
-0.84604299999999999

>  <SCORE.heavy>  (231) 
15

>  <OrigSmiles>  (231) 
C#CC1(O)CCN(Cc2csnn2)CC1

>  <SuCOS_Score>  (231) 
0.45327761952461709

>  <Max_SuCOS_Score>  (231) 
0

>  <Cum_SuCOS_Score>  (231) 
0

>  <TransFSScore_50nM>  (231) 
0.0029510000000000001

>  <TransFSScore_1uM>  (231) 
0.010958000000000001

>  <TransFSScore_10nM>  (231) 
0.080995999999999999

>  <TransFSScore_200nM>  (231) 
0.023725

>  <TransFSScore>  (231) 
0.0296575

>  <FeatureSteinScore>  (231) 
0.3566917427833074

>  <XCos_RefMols>  (231) 
x1392_0,x0874_0

>  <XCos_NumHits>  (231) 
2

>  <XCos_Score1>  (231) 
10.9358

>  <XCos_Score2>  (231) 
0.1236

>  <XCos_Score3>  (231) 
0.0113

$$$$
C#CC1(O)CCN(Cc2nc[nH]n2)CC1
     RDKit          3D

 15 16  0  0  0  0  0  0  0  0999 V2000
    8.1969   -2.2565   26.8203 C   0  0  0  0  0  0  0  0  0  0  0  0
    8.4871   -3.2868   26.2630 C   0  0  0  0  0  0  0  0  0  0  0  0
    8.8399   -4.5708   25.5756 C   0  0  0  0  0  0  0  0  0  0  0  0
    8.7580   -5.4832   26.5955 O   0  0  0  0  0  0  0  0  0  0  0  0
   10.2220   -4.5646   24.9365 C   0  0  0  0  0  0  0  0  0  0  0  0
   10.3385   -3.2456   24.2302 C   0  0  0  0  0  0  0  0  0  0  0  0
    9.3082   -3.0925   23.1745 N   0  0  0  0  0  0  0  0  0  0  0  0
    9.2233   -1.6793   22.7977 C   0  0  0  0  0  0  0  0  0  0  0  0
   10.5995   -1.1313   22.5628 C   0  0  0  0  0  0  0  0  0  0  0  0
   11.3115   -0.4601   23.4949 N   0  0  0  0  0  0  0  0  0  0  0  0
   12.4428   -0.1500   22.8244 C   0  0  0  0  0  0  0  0  0  0  0  0
   12.4123   -0.6051   21.5599 N   0  0  0  0  0  0  0  0  0  0  0  0
   11.2581   -1.2189   21.3940 N   0  0  0  0  0  0  0  0  0  0  0  0
    7.9398   -3.6438   23.4143 C   0  0  0  0  0  0  0  0  0  0  0  0
    7.8254   -4.7704   24.4685 C   0  0  0  0  0  0  0  0  0  0  0  0
  1  2  3  0
  2  3  1  0
  3  4  1  0
  3  5  1  0
  5  6  1  0
  6  7  1  0
  7  8  1  0
  7 14  1  0
  8  9  1  0
  9 10  1  0
 10 11  2  0
 11 12  1  0
 12 13  1  0
 13  9  2  0
 14 15  1  0
 15  3  1  0
M  END
>  <Hit>  (232) 
Mpro-x0387_0

>  <Receptor>  (232) 
Mpro-x1249_0

>  <SCORE>  (232) 
-10.0243

>  <SCORE.norm>  (232) 
-0.66828900000000002

>  <SCORE.heavy>  (232) 
15

>  <OrigSmiles>  (232) 
C#CC1(O)CCN(Cc2nc[nH]n2)CC1

>  <SuCOS_Score>  (232) 
0.40418539999760789

>  <Max_SuCOS_Score>  (232) 
0

>  <Cum_SuCOS_Score>  (232) 
0

>  <TransFSScore_50nM>  (232) 
0.0030019999999999999

>  <TransFSScore_1uM>  (232) 
0.039709000000000001

>  <TransFSScore_10nM>  (232) 
0.0065440000000000003

>  <TransFSScore_200nM>  (232) 
0.011302

>  <TransFSScore>  (232) 
0.01513925

>  <FeatureSteinScore>  (232) 
0.42134552843945133

>  <XCos_RefMols>  (232) 
x0708_0,x0774_0

>  <XCos_NumHits>  (232) 
2

>  <XCos_Score1>  (232) 
11.0547

>  <XCos_Score2>  (232) 
0.1874

>  <XCos_Score3>  (232) 
0.0169

$$$$
C#CC1(O)CCN(Cc2nc[nH]n2)CC1
     RDKit          3D

 15 16  0  0  0  0  0  0  0  0999 V2000
    8.1563   -2.4033   26.8336 C   0  0  0  0  0  0  0  0  0  0  0  0
    8.4302   -3.4166   26.2381 C   0  0  0  0  0  0  0  0  0  0  0  0
    8.7590   -4.6701   25.4989 C   0  0  0  0  0  0  0  0  0  0  0  0
    8.6652   -5.5903   26.5040 O   0  0  0  0  0  0  0  0  0  0  0  0
   10.1543   -4.6617   24.9008 C   0  0  0  0  0  0  0  0  0  0  0  0
   10.3133   -3.3213   24.2420 C   0  0  0  0  0  0  0  0  0  0  0  0
    9.3087   -3.1100   23.1711 N   0  0  0  0  0  0  0  0  0  0  0  0
    9.2653   -1.6836   22.8384 C   0  0  0  0  0  0  0  0  0  0  0  0
   10.6540   -1.1754   22.5911 C   0  0  0  0  0  0  0  0  0  0  0  0
   11.3937   -0.5277   23.5139 N   0  0  0  0  0  0  0  0  0  0  0  0
   12.5310   -0.2196   22.9122 N   0  0  0  0  0  0  0  0  0  0  0  0
   12.4753   -0.6703   21.6473 C   0  0  0  0  0  0  0  0  0  0  0  0
   11.3004   -1.2785   21.4130 N   0  0  0  0  0  0  0  0  0  0  0  0
    7.9215   -3.6314   23.3668 C   0  0  0  0  0  0  0  0  0  0  0  0
    7.7574   -4.7983   24.3679 C   0  0  0  0  0  0  0  0  0  0  0  0
  1  2  3  0
  2  3  1  0
  3  4  1  0
  3  5  1  0
  5  6  1  0
  6  7  1  0
  7  8  1  0
  7 14  1  0
  8  9  1  0
  9 10  2  0
 10 11  1  0
 11 12  1  0
 12 13  2  0
 13  9  1  0
 14 15  1  0
 15  3  1  0
M  END
>  <Hit>  (233) 
Mpro-x0387_0

>  <Receptor>  (233) 
Mpro-x1249_0

>  <SCORE>  (233) 
-10.0686

>  <SCORE.norm>  (233) 
-0.67123900000000003

>  <SCORE.heavy>  (233) 
15

>  <OrigSmiles>  (233) 
C#CC1(O)CCN(Cc2nc[nH]n2)CC1

>  <SuCOS_Score>  (233) 
0.40093776822588822

>  <Max_SuCOS_Score>  (233) 
0

>  <Cum_SuCOS_Score>  (233) 
0

>  <TransFSScore_50nM>  (233) 
0.002019

>  <TransFSScore_1uM>  (233) 
0.036311999999999997

>  <TransFSScore_10nM>  (233) 
0.0020539999999999998

>  <TransFSScore_200nM>  (233) 
0.028768999999999999

>  <TransFSScore>  (233) 
0.017288499999999998

>  <FeatureSteinScore>  (233) 
0.45507632116065522

>  <XCos_RefMols>  (233) 
x1392_0,x0774_0

>  <XCos_NumHits>  (233) 
2

>  <XCos_Score1>  (233) 
11.1389

>  <XCos_Score2>  (233) 
0.2517

>  <XCos_Score3>  (233) 
0.0226

$$$$
C#CC1(O)CCN(Cc2nc[nH]n2)CC1
     RDKit          3D

 15 16  0  0  0  0  0  0  0  0999 V2000
    7.9809   -2.4554   26.8036 C   0  0  0  0  0  0  0  0  0  0  0  0
    8.3145   -3.4622   26.2279 C   0  0  0  0  0  0  0  0  0  0  0  0
    8.7239   -4.7092   25.5048 C   0  0  0  0  0  0  0  0  0  0  0  0
    8.6115   -5.6658   26.4803 O   0  0  0  0  0  0  0  0  0  0  0  0
   10.1343   -4.6518   24.9337 C   0  0  0  0  0  0  0  0  0  0  0  0
   10.2587   -3.3019   24.2899 C   0  0  0  0  0  0  0  0  0  0  0  0
    9.2768   -3.1213   23.1933 N   0  0  0  0  0  0  0  0  0  0  0  0
    9.1827   -1.6949   22.8727 C   0  0  0  0  0  0  0  0  0  0  0  0
   10.5543   -1.1323   22.6461 C   0  0  0  0  0  0  0  0  0  0  0  0
   11.2575   -0.4620   23.5855 N   0  0  0  0  0  0  0  0  0  0  0  0
   12.3877   -0.1361   22.9207 C   0  0  0  0  0  0  0  0  0  0  0  0
   12.3649   -0.5813   21.6525 N   0  0  0  0  0  0  0  0  0  0  0  0
   11.2169   -1.2043   21.4785 N   0  0  0  0  0  0  0  0  0  0  0  0
    7.9094   -3.7058   23.3437 C   0  0  0  0  0  0  0  0  0  0  0  0
    7.7670   -4.8785   24.3428 C   0  0  0  0  0  0  0  0  0  0  0  0
  1  2  3  0
  2  3  1  0
  3  4  1  0
  3  5  1  0
  5  6  1  0
  6  7  1  0
  7  8  1  0
  7 14  1  0
  8  9  1  0
  9 10  1  0
 10 11  2  0
 11 12  1  0
 12 13  1  0
 13  9  2  0
 14 15  1  0
 15  3  1  0
M  END
>  <Hit>  (234) 
Mpro-x0387_0

>  <Receptor>  (234) 
Mpro-x1249_0

>  <SCORE>  (234) 
-10.081799999999999

>  <SCORE.norm>  (234) 
-0.67211799999999999

>  <SCORE.heavy>  (234) 
15

>  <OrigSmiles>  (234) 
C#CC1(O)CCN(Cc2nc[nH]n2)CC1

>  <SuCOS_Score>  (234) 
0.39273983910840843

>  <Max_SuCOS_Score>  (234) 
0

>  <Cum_SuCOS_Score>  (234) 
0

>  <TransFSScore_50nM>  (234) 
0.002496

>  <TransFSScore_1uM>  (234) 
0.046301000000000002

>  <TransFSScore_10nM>  (234) 
0.0050429999999999997

>  <TransFSScore_200nM>  (234) 
0.009077

>  <TransFSScore>  (234) 
0.01572925

>  <FeatureSteinScore>  (234) 
0.43532696220707656

>  <XCos_RefMols>  (234) 
x0708_0,x0774_0,x1382_0

>  <XCos_NumHits>  (234) 
3

>  <XCos_Score1>  (234) 
11.2604

>  <XCos_Score2>  (234) 
0.3181

>  <XCos_Score3>  (234) 
0.0282

$$$$
C#CC1(O)CCN(Cc2nc[nH]n2)CC1
     RDKit          3D

 15 16  0  0  0  0  0  0  0  0999 V2000
    8.1472   -2.3323   26.7944 C   0  0  0  0  0  0  0  0  0  0  0  0
    8.4680   -3.3434   26.2191 C   0  0  0  0  0  0  0  0  0  0  0  0
    8.8569   -4.6016   25.5040 C   0  0  0  0  0  0  0  0  0  0  0  0
    8.7836   -5.5411   26.4997 O   0  0  0  0  0  0  0  0  0  0  0  0
   10.2456   -4.5492   24.8817 C   0  0  0  0  0  0  0  0  0  0  0  0
   10.3410   -3.2104   24.2102 C   0  0  0  0  0  0  0  0  0  0  0  0
    9.3197   -3.0532   23.1465 N   0  0  0  0  0  0  0  0  0  0  0  0
    9.2079   -1.6330   22.8042 C   0  0  0  0  0  0  0  0  0  0  0  0
   10.5718   -1.0590   22.5606 C   0  0  0  0  0  0  0  0  0  0  0  0
   11.2654   -0.3509   23.4792 N   0  0  0  0  0  0  0  0  0  0  0  0
   12.3914   -0.0300   22.8048 C   0  0  0  0  0  0  0  0  0  0  0  0
   12.3753   -0.5140   21.5508 N   0  0  0  0  0  0  0  0  0  0  0  0
   11.2359   -1.1576   21.3958 N   0  0  0  0  0  0  0  0  0  0  0  0
    7.9611   -3.6401   23.3561 C   0  0  0  0  0  0  0  0  0  0  0  0
    7.8597   -4.7952   24.3802 C   0  0  0  0  0  0  0  0  0  0  0  0
  1  2  3  0
  2  3  1  0
  3  4  1  0
  3  5  1  0
  5  6  1  0
  6  7  1  0
  7  8  1  0
  7 14  1  0
  8  9  1  0
  9 10  1  0
 10 11  2  0
 11 12  1  0
 12 13  1  0
 13  9  2  0
 14 15  1  0
 15  3  1  0
M  END
>  <Hit>  (235) 
Mpro-x0387_0

>  <Receptor>  (235) 
Mpro-x1249_0

>  <SCORE>  (235) 
-10.124700000000001

>  <SCORE.norm>  (235) 
-0.674983

>  <SCORE.heavy>  (235) 
15

>  <OrigSmiles>  (235) 
C#CC1(O)CCN(Cc2nc[nH]n2)CC1

>  <SuCOS_Score>  (235) 
0.39076692031214361

>  <Max_SuCOS_Score>  (235) 
0

>  <Cum_SuCOS_Score>  (235) 
0

>  <TransFSScore_50nM>  (235) 
0.0029039999999999999

>  <TransFSScore_1uM>  (235) 
0.040422

>  <TransFSScore_10nM>  (235) 
0.0066779999999999999

>  <TransFSScore_200nM>  (235) 
0.0096749999999999996

>  <TransFSScore>  (235) 
0.014919749999999999

>  <FeatureSteinScore>  (235) 
0.43260377365982206

>  <XCos_RefMols>  (235) 
x0708_0,x0774_0

>  <XCos_NumHits>  (235) 
2

>  <XCos_Score1>  (235) 
11.0489

>  <XCos_Score2>  (235) 
0.1873

>  <XCos_Score3>  (235) 
0.0169

$$$$
C#CC1(O)CCN(Cc2nc[nH]n2)CC1
     RDKit          3D

 15 16  0  0  0  0  0  0  0  0999 V2000
    8.2624   -2.2567   26.8376 C   0  0  0  0  0  0  0  0  0  0  0  0
    8.5371   -3.2832   26.2659 C   0  0  0  0  0  0  0  0  0  0  0  0
    8.8771   -4.5535   25.5472 C   0  0  0  0  0  0  0  0  0  0  0  0
    8.7742   -5.4914   26.5417 O   0  0  0  0  0  0  0  0  0  0  0  0
   10.2641   -4.5502   24.9189 C   0  0  0  0  0  0  0  0  0  0  0  0
   10.4049   -3.2147   24.2489 C   0  0  0  0  0  0  0  0  0  0  0  0
    9.3853   -3.0188   23.1900 N   0  0  0  0  0  0  0  0  0  0  0  0
    9.3235   -1.5950   22.8504 C   0  0  0  0  0  0  0  0  0  0  0  0
   10.7036   -1.0767   22.5752 C   0  0  0  0  0  0  0  0  0  0  0  0
   11.4571   -0.4217   23.4859 N   0  0  0  0  0  0  0  0  0  0  0  0
   12.5747   -0.1356   22.7824 C   0  0  0  0  0  0  0  0  0  0  0  0
   12.4971   -0.5890   21.5193 N   0  0  0  0  0  0  0  0  0  0  0  0
   11.3255   -1.1775   21.3875 N   0  0  0  0  0  0  0  0  0  0  0  0
    8.0074   -3.5565   23.4047 C   0  0  0  0  0  0  0  0  0  0  0  0
    7.8687   -4.7090   24.4275 C   0  0  0  0  0  0  0  0  0  0  0  0
  1  2  3  0
  2  3  1  0
  3  4  1  0
  3  5  1  0
  5  6  1  0
  6  7  1  0
  7  8  1  0
  7 14  1  0
  8  9  1  0
  9 10  1  0
 10 11  2  0
 11 12  1  0
 12 13  1  0
 13  9  2  0
 14 15  1  0
 15  3  1  0
M  END
>  <Hit>  (236) 
Mpro-x0387_0

>  <Receptor>  (236) 
Mpro-x1249_0

>  <SCORE>  (236) 
-10.1822

>  <SCORE.norm>  (236) 
-0.67881400000000003

>  <SCORE.heavy>  (236) 
15

>  <OrigSmiles>  (236) 
C#CC1(O)CCN(Cc2nc[nH]n2)CC1

>  <SuCOS_Score>  (236) 
0.41050992058443658

>  <Max_SuCOS_Score>  (236) 
0

>  <Cum_SuCOS_Score>  (236) 
0

>  <TransFSScore_50nM>  (236) 
0.0030460000000000001

>  <TransFSScore_1uM>  (236) 
0.038782999999999998

>  <TransFSScore_10nM>  (236) 
0.0075339999999999999

>  <TransFSScore_200nM>  (236) 
0.011311999999999999

>  <TransFSScore>  (236) 
0.015168749999999998

>  <FeatureSteinScore>  (236) 
0.4312968162996087

>  <XCos_RefMols>  (236) 
x1392_0,x0774_0

>  <XCos_NumHits>  (236) 
2

>  <XCos_Score1>  (236) 
10.9897

>  <XCos_Score2>  (236) 
0.1863

>  <XCos_Score3>  (236) 
0.0169

$$$$
C#CC1(O)CCN(Cc2nc[nH]n2)CC1
     RDKit          3D

 15 16  0  0  0  0  0  0  0  0999 V2000
    8.3849   -2.9410   27.5963 C   0  0  0  0  0  0  0  0  0  0  0  0
    8.5221   -4.0255   27.0842 C   0  0  0  0  0  0  0  0  0  0  0  0
    8.6911   -5.3532   26.4336 C   0  0  0  0  0  0  0  0  0  0  0  0
    8.4175   -6.1558   27.4991 O   0  0  0  0  0  0  0  0  0  0  0  0
   10.1148   -5.5324   25.9288 C   0  0  0  0  0  0  0  0  0  0  0  0
   10.4585   -4.3152   25.0740 C   0  0  0  0  0  0  0  0  0  0  0  0
    9.3065   -3.7873   24.2956 N   0  0  0  0  0  0  0  0  0  0  0  0
    9.6355   -2.9284   23.1539 C   0  0  0  0  0  0  0  0  0  0  0  0
   10.4740   -1.7366   23.4864 C   0  0  0  0  0  0  0  0  0  0  0  0
   11.7542   -1.5898   23.0808 N   0  0  0  0  0  0  0  0  0  0  0  0
   12.0742   -0.3842   23.5901 C   0  0  0  0  0  0  0  0  0  0  0  0
   11.0442    0.1576   24.2588 N   0  0  0  0  0  0  0  0  0  0  0  0
   10.0293   -0.6834   24.1999 N   0  0  0  0  0  0  0  0  0  0  0  0
    8.2842   -4.8079   23.9674 C   0  0  0  0  0  0  0  0  0  0  0  0
    7.7097   -5.4740   25.2501 C   0  0  0  0  0  0  0  0  0  0  0  0
  1  2  3  0
  2  3  1  0
  3  4  1  0
  3  5  1  0
  5  6  1  0
  6  7  1  0
  7  8  1  0
  7 14  1  0
  8  9  1  0
  9 10  1  0
 10 11  2  0
 11 12  1  0
 12 13  1  0
 13  9  2  0
 14 15  1  0
 15  3  1  0
M  END
>  <Hit>  (237) 
Mpro-x0387_0

>  <Receptor>  (237) 
Mpro-x0305_0

>  <SCORE>  (237) 
-10.201499999999999

>  <SCORE.norm>  (237) 
-0.68009699999999995

>  <SCORE.heavy>  (237) 
15

>  <OrigSmiles>  (237) 
C#CC1(O)CCN(Cc2nc[nH]n2)CC1

>  <SuCOS_Score>  (237) 
0.42675741586787563

>  <Max_SuCOS_Score>  (237) 
0

>  <Cum_SuCOS_Score>  (237) 
0

>  <TransFSScore_50nM>  (237) 
0.0041200000000000004

>  <TransFSScore_1uM>  (237) 
0.037755999999999998

>  <TransFSScore_10nM>  (237) 
0.00057700000000000004

>  <TransFSScore_200nM>  (237) 
0.029430999999999999

>  <TransFSScore>  (237) 
0.017971000000000001

>  <FeatureSteinScore>  (237) 
0.2476945336349467

>  <XCos_RefMols>  (237) 
x1392_0,x0305_0

>  <XCos_NumHits>  (237) 
2

>  <XCos_Score1>  (237) 
9.7659

>  <XCos_Score2>  (237) 
0.0000

>  <XCos_Score3>  (237) 
0.0000

$$$$
C#CC1(O)CCN(Cc2nc[nH]n2)CC1
     RDKit          3D

 15 16  0  0  0  0  0  0  0  0999 V2000
    8.5726   -5.1553   29.0354 C   0  0  0  0  0  0  0  0  0  0  0  0
    8.8331   -5.3077   27.8679 C   0  0  0  0  0  0  0  0  0  0  0  0
    9.1532   -5.4952   26.4357 C   0  0  0  0  0  0  0  0  0  0  0  0
    9.2132   -6.8700   26.1455 O   0  0  0  0  0  0  0  0  0  0  0  0
    8.0157   -4.9139   25.5992 C   0  0  0  0  0  0  0  0  0  0  0  0
    8.5299   -4.5949   24.2097 C   0  0  0  0  0  0  0  0  0  0  0  0
    9.4160   -3.4236   24.3014 N   0  0  0  0  0  0  0  0  0  0  0  0
    9.9108   -3.0470   22.9773 C   0  0  0  0  0  0  0  0  0  0  0  0
   10.4300   -1.6384   23.0260 C   0  0  0  0  0  0  0  0  0  0  0  0
   10.4423   -0.8775   24.1362 N   0  0  0  0  0  0  0  0  0  0  0  0
   10.9501    0.2861   23.7645 N   0  0  0  0  0  0  0  0  0  0  0  0
   11.2398    0.2381   22.4509 C   0  0  0  0  0  0  0  0  0  0  0  0
   10.9177   -0.9731   21.9622 N   0  0  0  0  0  0  0  0  0  0  0  0
   10.4945   -3.5337   25.3211 C   0  0  0  0  0  0  0  0  0  0  0  0
   10.5292   -4.8611   26.0990 C   0  0  0  0  0  0  0  0  0  0  0  0
  1  2  3  0
  2  3  1  0
  3  4  1  0
  3  5  1  0
  5  6  1  0
  6  7  1  0
  7  8  1  0
  7 14  1  0
  8  9  1  0
  9 10  2  0
 10 11  1  0
 11 12  1  0
 12 13  2  0
 13  9  1  0
 14 15  1  0
 15  3  1  0
M  END
>  <Hit>  (238) 
Mpro-x0387_0

>  <Receptor>  (238) 
Mpro-x0387_0

>  <SCORE>  (238) 
-11.0381

>  <SCORE.norm>  (238) 
-0.73587499999999995

>  <SCORE.heavy>  (238) 
15

>  <OrigSmiles>  (238) 
C#CC1(O)CCN(Cc2nc[nH]n2)CC1

>  <SuCOS_Score>  (238) 
0.43748546783574993

>  <Max_SuCOS_Score>  (238) 
0

>  <Cum_SuCOS_Score>  (238) 
0

>  <TransFSScore_50nM>  (238) 
0.0041780000000000003

>  <TransFSScore_1uM>  (238) 
0.035624999999999997

>  <TransFSScore_10nM>  (238) 
0.00030200000000000002

>  <TransFSScore_200nM>  (238) 
0.0070939999999999996

>  <TransFSScore>  (238) 
0.011799749999999998

>  <FeatureSteinScore>  (238) 
0.35711336402604199

>  <XCos_RefMols>  (238) 
x1392_0

>  <XCos_NumHits>  (238) 
1

>  <XCos_Score1>  (238) 
9.4561

>  <XCos_Score2>  (238) 
0.0534

>  <XCos_Score3>  (238) 
0.0056

$$$$
C#CC1(O)CCN(Cc2nc[nH]n2)CC1
     RDKit          3D

 15 16  0  0  0  0  0  0  0  0999 V2000
    8.6272   -5.1521   28.9315 C   0  0  0  0  0  0  0  0  0  0  0  0
    8.9026   -5.2936   27.7661 C   0  0  0  0  0  0  0  0  0  0  0  0
    9.2401   -5.4668   26.3360 C   0  0  0  0  0  0  0  0  0  0  0  0
    9.3055   -6.8387   26.0334 O   0  0  0  0  0  0  0  0  0  0  0  0
    8.1119   -4.8790   25.4917 C   0  0  0  0  0  0  0  0  0  0  0  0
    8.6423   -4.5458   24.1116 C   0  0  0  0  0  0  0  0  0  0  0  0
    9.5255   -3.3743   24.2252 N   0  0  0  0  0  0  0  0  0  0  0  0
   10.0357   -2.9843   22.9108 C   0  0  0  0  0  0  0  0  0  0  0  0
   10.5497   -1.5745   22.9787 C   0  0  0  0  0  0  0  0  0  0  0  0
   10.6171   -0.8504   24.1113 N   0  0  0  0  0  0  0  0  0  0  0  0
   11.0987    0.3281   23.7520 N   0  0  0  0  0  0  0  0  0  0  0  0
   11.3183    0.3253   22.4240 C   0  0  0  0  0  0  0  0  0  0  0  0
   10.9768   -0.8714   21.9132 N   0  0  0  0  0  0  0  0  0  0  0  0
   10.5920   -3.4929   25.2566 C   0  0  0  0  0  0  0  0  0  0  0  0
   10.6192   -4.8277   26.0221 C   0  0  0  0  0  0  0  0  0  0  0  0
  1  2  3  0
  2  3  1  0
  3  4  1  0
  3  5  1  0
  5  6  1  0
  6  7  1  0
  7  8  1  0
  7 14  1  0
  8  9  1  0
  9 10  2  0
 10 11  1  0
 11 12  1  0
 12 13  2  0
 13  9  1  0
 14 15  1  0
 15  3  1  0
M  END
>  <Hit>  (239) 
Mpro-x0387_0

>  <Receptor>  (239) 
Mpro-x0387_0

>  <SCORE>  (239) 
-11.0831

>  <SCORE.norm>  (239) 
-0.73887400000000003

>  <SCORE.heavy>  (239) 
15

>  <OrigSmiles>  (239) 
C#CC1(O)CCN(Cc2nc[nH]n2)CC1

>  <SuCOS_Score>  (239) 
0.44857075608814312

>  <Max_SuCOS_Score>  (239) 
0

>  <Cum_SuCOS_Score>  (239) 
0

>  <TransFSScore_50nM>  (239) 
0.0040169999999999997

>  <TransFSScore_1uM>  (239) 
0.034030999999999999

>  <TransFSScore_10nM>  (239) 
0.00036699999999999998

>  <TransFSScore_200nM>  (239) 
0.0090709999999999992

>  <TransFSScore>  (239) 
0.0118715

>  <FeatureSteinScore>  (239) 
0.35570141662069577

>  <XCos_RefMols>  (239) 
x1392_0

>  <XCos_NumHits>  (239) 
1

>  <XCos_Score1>  (239) 
9.4012

>  <XCos_Score2>  (239) 
0.0531

>  <XCos_Score3>  (239) 
0.0056

$$$$
C#CC1(O)CCN(Cc2nc[nH]n2)CC1
     RDKit          3D

 15 16  0  0  0  0  0  0  0  0999 V2000
    9.6583   -3.5143   28.3946 C   0  0  0  0  0  0  0  0  0  0  0  0
    9.2765   -4.3815   27.6467 C   0  0  0  0  0  0  0  0  0  0  0  0
    8.8104   -5.4382   26.7080 C   0  0  0  0  0  0  0  0  0  0  0  0
    8.2498   -6.2960   27.6046 O   0  0  0  0  0  0  0  0  0  0  0  0
    9.9841   -6.0636   25.9697 C   0  0  0  0  0  0  0  0  0  0  0  0
   10.8007   -4.9296   25.3552 C   0  0  0  0  0  0  0  0  0  0  0  0
    9.9752   -3.7835   24.8894 N   0  0  0  0  0  0  0  0  0  0  0  0
   10.6076   -2.8803   23.9231 C   0  0  0  0  0  0  0  0  0  0  0  0
   11.1922   -1.6383   24.5147 C   0  0  0  0  0  0  0  0  0  0  0  0
   11.0221   -1.2761   25.8050 N   0  0  0  0  0  0  0  0  0  0  0  0
   11.7328   -0.1336   25.8725 C   0  0  0  0  0  0  0  0  0  0  0  0
   12.2959    0.1673   24.6918 N   0  0  0  0  0  0  0  0  0  0  0  0
   11.9645   -0.7734   23.8280 N   0  0  0  0  0  0  0  0  0  0  0  0
    8.5933   -4.1542   24.5059 C   0  0  0  0  0  0  0  0  0  0  0  0
    7.8326   -4.8229   25.6864 C   0  0  0  0  0  0  0  0  0  0  0  0
  1  2  3  0
  2  3  1  0
  3  4  1  0
  3  5  1  0
  5  6  1  0
  6  7  1  0
  7  8  1  0
  7 14  1  0
  8  9  1  0
  9 10  1  0
 10 11  2  0
 11 12  1  0
 12 13  1  0
 13  9  2  0
 14 15  1  0
 15  3  1  0
M  END
>  <Hit>  (240) 
Mpro-x0387_0

>  <Receptor>  (240) 
Mpro-x0387_0

>  <SCORE>  (240) 
-11.0892

>  <SCORE.norm>  (240) 
-0.73928099999999997

>  <SCORE.heavy>  (240) 
15

>  <OrigSmiles>  (240) 
C#CC1(O)CCN(Cc2nc[nH]n2)CC1

>  <SuCOS_Score>  (240) 
0.3975159459701697

>  <Max_SuCOS_Score>  (240) 
0

>  <Cum_SuCOS_Score>  (240) 
0

>  <TransFSScore_50nM>  (240) 
0.001655

>  <TransFSScore_1uM>  (240) 
0.032314000000000002

>  <TransFSScore_10nM>  (240) 
0.00088699999999999998

>  <TransFSScore_200nM>  (240) 
0.020818

>  <TransFSScore>  (240) 
0.0139185

>  <FeatureSteinScore>  (240) 
0.21828077587982778

>  <XCos_RefMols>  (240) 
x0749_0

>  <XCos_NumHits>  (240) 
1

>  <XCos_Score1>  (240) 
8.0802

>  <XCos_Score2>  (240) 
0.0457

>  <XCos_Score3>  (240) 
0.0056

$$$$
C#CC1(O)CCN(Cc2nc[nH]n2)CC1
     RDKit          3D

 15 16  0  0  0  0  0  0  0  0999 V2000
    9.7212   -3.9061   28.7137 C   0  0  0  0  0  0  0  0  0  0  0  0
    9.2806   -4.5622   27.8017 C   0  0  0  0  0  0  0  0  0  0  0  0
    8.7365   -5.3815   26.6798 C   0  0  0  0  0  0  0  0  0  0  0  0
    8.1515   -6.4074   27.3683 O   0  0  0  0  0  0  0  0  0  0  0  0
    9.8125   -5.9011   25.7434 C   0  0  0  0  0  0  0  0  0  0  0  0
   10.7333   -4.7449   25.4874 C   0  0  0  0  0  0  0  0  0  0  0  0
   10.0232   -3.5939   24.8901 N   0  0  0  0  0  0  0  0  0  0  0  0
   10.8344   -2.3884   25.0128 C   0  0  0  0  0  0  0  0  0  0  0  0
   11.2841   -1.9660   23.6507 C   0  0  0  0  0  0  0  0  0  0  0  0
   12.4961   -1.4282   23.3901 N   0  0  0  0  0  0  0  0  0  0  0  0
   12.4448   -1.2398   22.0530 C   0  0  0  0  0  0  0  0  0  0  0  0
   11.2704   -1.6435   21.5381 N   0  0  0  0  0  0  0  0  0  0  0  0
   10.5426   -2.0994   22.5376 N   0  0  0  0  0  0  0  0  0  0  0  0
    8.5945   -3.3280   25.2231 C   0  0  0  0  0  0  0  0  0  0  0  0
    7.8077   -4.4844   25.8869 C   0  0  0  0  0  0  0  0  0  0  0  0
  1  2  3  0
  2  3  1  0
  3  4  1  0
  3  5  1  0
  5  6  1  0
  6  7  1  0
  7  8  1  0
  7 14  1  0
  8  9  1  0
  9 10  1  0
 10 11  2  0
 11 12  1  0
 12 13  1  0
 13  9  2  0
 14 15  1  0
 15  3  1  0
M  END
>  <Hit>  (241) 
Mpro-x0387_0

>  <Receptor>  (241) 
Mpro-x0387_0

>  <SCORE>  (241) 
-11.3226

>  <SCORE.norm>  (241) 
-0.75483800000000001

>  <SCORE.heavy>  (241) 
15

>  <OrigSmiles>  (241) 
C#CC1(O)CCN(Cc2nc[nH]n2)CC1

>  <SuCOS_Score>  (241) 
0.44713798030357038

>  <Max_SuCOS_Score>  (241) 
0

>  <Cum_SuCOS_Score>  (241) 
0

>  <TransFSScore_50nM>  (241) 
0.014664

>  <TransFSScore_1uM>  (241) 
0.037891000000000001

>  <TransFSScore_10nM>  (241) 
0.00045600000000000003

>  <TransFSScore_200nM>  (241) 
0.024558

>  <TransFSScore>  (241) 
0.01939225

>  <FeatureSteinScore>  (241) 
0.2774007417656017

>  <XCos_RefMols>  (241) 
x0749_0

>  <XCos_NumHits>  (241) 
1

>  <XCos_Score1>  (241) 
7.8337

>  <XCos_Score2>  (241) 
0.0885

>  <XCos_Score3>  (241) 
0.0113

$$$$
C#CC1(O)CCN(Cc2ncc[nH]2)CC1
     RDKit          3D

 15 16  0  0  0  0  0  0  0  0999 V2000
    8.6962   -2.2784   27.1883 C   0  0  0  0  0  0  0  0  0  0  0  0
    8.7257   -3.4350   26.8441 C   0  0  0  0  0  0  0  0  0  0  0  0
    8.7594   -4.8548   26.3995 C   0  0  0  0  0  0  0  0  0  0  0  0
    8.6516   -5.4666   27.6111 O   0  0  0  0  0  0  0  0  0  0  0  0
   10.0759   -5.1751   25.7081 C   0  0  0  0  0  0  0  0  0  0  0  0
   10.2956   -4.1248   24.6225 C   0  0  0  0  0  0  0  0  0  0  0  0
    9.0403   -3.6745   23.9643 N   0  0  0  0  0  0  0  0  0  0  0  0
    9.1905   -3.0196   22.6612 C   0  0  0  0  0  0  0  0  0  0  0  0
   10.2296   -1.9442   22.6155 C   0  0  0  0  0  0  0  0  0  0  0  0
   10.6750   -1.3008   23.7158 N   0  0  0  0  0  0  0  0  0  0  0  0
   11.6058   -0.4495   23.2404 C   0  0  0  0  0  0  0  0  0  0  0  0
   11.7086   -0.5940   21.8751 C   0  0  0  0  0  0  0  0  0  0  0  0
   10.8397   -1.5381   21.4849 N   0  0  0  0  0  0  0  0  0  0  0  0
    7.9590   -4.6868   23.9752 C   0  0  0  0  0  0  0  0  0  0  0  0
    7.5931   -5.1159   25.4248 C   0  0  0  0  0  0  0  0  0  0  0  0
  1  2  3  0
  2  3  1  0
  3  4  1  0
  3  5  1  0
  5  6  1  0
  6  7  1  0
  7  8  1  0
  7 14  1  0
  8  9  1  0
  9 10  2  0
 10 11  1  0
 11 12  2  0
 12 13  1  0
 13  9  1  0
 14 15  1  0
 15  3  1  0
M  END
>  <Hit>  (242) 
Mpro-x0387_0

>  <Receptor>  (242) 
Mpro-x1249_0

>  <SCORE>  (242) 
-12.141400000000001

>  <SCORE.norm>  (242) 
-0.80942499999999995

>  <SCORE.heavy>  (242) 
15

>  <OrigSmiles>  (242) 
C#CC1(O)CCN(Cc2ncc[nH]2)CC1

>  <SuCOS_Score>  (242) 
0.4499437017526503

>  <Max_SuCOS_Score>  (242) 
0

>  <Cum_SuCOS_Score>  (242) 
0

>  <TransFSScore_50nM>  (242) 
0.0042220000000000001

>  <TransFSScore_1uM>  (242) 
0.050715999999999997

>  <TransFSScore_10nM>  (242) 
0.007208

>  <TransFSScore_200nM>  (242) 
0.437386

>  <TransFSScore>  (242) 
0.12488299999999999

>  <FeatureSteinScore>  (242) 
0.283828588267305

>  <XCos_RefMols>  (242) 
x1392_0

>  <XCos_NumHits>  (242) 
1

>  <XCos_Score1>  (242) 
10.0490

>  <XCos_Score2>  (242) 
0.0000

>  <XCos_Score3>  (242) 
0.0000

$$$$
C#CC1(O)CCN(Cc2ncc[nH]2)CC1
     RDKit          3D

 15 16  0  0  0  0  0  0  0  0999 V2000
    8.6352   -2.2572   27.1588 C   0  0  0  0  0  0  0  0  0  0  0  0
    8.6831   -3.4165   26.8262 C   0  0  0  0  0  0  0  0  0  0  0  0
    8.7434   -4.8398   26.3957 C   0  0  0  0  0  0  0  0  0  0  0  0
    8.6471   -5.4414   27.6134 O   0  0  0  0  0  0  0  0  0  0  0  0
   10.0657   -5.1423   25.7074 C   0  0  0  0  0  0  0  0  0  0  0  0
   10.2658   -4.0989   24.6113 C   0  0  0  0  0  0  0  0  0  0  0  0
    9.0023   -3.6788   23.9488 N   0  0  0  0  0  0  0  0  0  0  0  0
    9.1403   -3.0343   22.6393 C   0  0  0  0  0  0  0  0  0  0  0  0
   10.1343   -1.9171   22.5914 C   0  0  0  0  0  0  0  0  0  0  0  0
   10.5098   -1.2158   23.6823 N   0  0  0  0  0  0  0  0  0  0  0  0
   11.4217   -0.3428   23.2098 C   0  0  0  0  0  0  0  0  0  0  0  0
   11.5827   -0.5318   21.8555 C   0  0  0  0  0  0  0  0  0  0  0  0
   10.7698   -1.5260   21.4695 N   0  0  0  0  0  0  0  0  0  0  0  0
    7.9402   -4.7111   23.9700 C   0  0  0  0  0  0  0  0  0  0  0  0
    7.5822   -5.1325   25.4238 C   0  0  0  0  0  0  0  0  0  0  0  0
  1  2  3  0
  2  3  1  0
  3  4  1  0
  3  5  1  0
  5  6  1  0
  6  7  1  0
  7  8  1  0
  7 14  1  0
  8  9  1  0
  9 10  2  0
 10 11  1  0
 11 12  2  0
 12 13  1  0
 13  9  1  0
 14 15  1  0
 15  3  1  0
M  END
>  <Hit>  (243) 
Mpro-x0387_0

>  <Receptor>  (243) 
Mpro-x1249_0

>  <SCORE>  (243) 
-12.1541

>  <SCORE.norm>  (243) 
-0.81027499999999997

>  <SCORE.heavy>  (243) 
15

>  <OrigSmiles>  (243) 
C#CC1(O)CCN(Cc2ncc[nH]2)CC1

>  <SuCOS_Score>  (243) 
0.44061775414723303

>  <Max_SuCOS_Score>  (243) 
0

>  <Cum_SuCOS_Score>  (243) 
0

>  <TransFSScore_50nM>  (243) 
0.0044749999999999998

>  <TransFSScore_1uM>  (243) 
0.051056999999999998

>  <TransFSScore_10nM>  (243) 
0.0078779999999999996

>  <TransFSScore_200nM>  (243) 
0.44886599999999999

>  <TransFSScore>  (243) 
0.12806899999999999

>  <FeatureSteinScore>  (243) 
0.29797991022525477

>  <XCos_RefMols>  (243) 
x1392_0

>  <XCos_NumHits>  (243) 
1

>  <XCos_Score1>  (243) 
10.1504

>  <XCos_Score2>  (243) 
0.0000

>  <XCos_Score3>  (243) 
0.0000

$$$$
C#CC1(O)CCN(Cc2ncc[nH]2)CC1
     RDKit          3D

 15 16  0  0  0  0  0  0  0  0999 V2000
    8.7421   -2.2819   27.1768 C   0  0  0  0  0  0  0  0  0  0  0  0
    8.7458   -3.4368   26.8258 C   0  0  0  0  0  0  0  0  0  0  0  0
    8.7649   -4.8559   26.3780 C   0  0  0  0  0  0  0  0  0  0  0  0
    8.6815   -5.4695   27.5907 O   0  0  0  0  0  0  0  0  0  0  0  0
   10.0649   -5.1794   25.6575 C   0  0  0  0  0  0  0  0  0  0  0  0
   10.2644   -4.1279   24.5692 C   0  0  0  0  0  0  0  0  0  0  0  0
    8.9966   -3.6721   23.9393 N   0  0  0  0  0  0  0  0  0  0  0  0
    9.1205   -3.0154   22.6344 C   0  0  0  0  0  0  0  0  0  0  0  0
   10.1149   -1.8986   22.5860 C   0  0  0  0  0  0  0  0  0  0  0  0
   10.4710   -1.1796   23.6719 N   0  0  0  0  0  0  0  0  0  0  0  0
   11.3908   -0.3137   23.2014 C   0  0  0  0  0  0  0  0  0  0  0  0
   11.5756   -0.5245   21.8534 C   0  0  0  0  0  0  0  0  0  0  0  0
   10.7699   -1.5253   21.4693 N   0  0  0  0  0  0  0  0  0  0  0  0
    7.9123   -4.6808   23.9721 C   0  0  0  0  0  0  0  0  0  0  0  0
    7.5767   -5.1113   25.4286 C   0  0  0  0  0  0  0  0  0  0  0  0
  1  2  3  0
  2  3  1  0
  3  4  1  0
  3  5  1  0
  5  6  1  0
  6  7  1  0
  7  8  1  0
  7 14  1  0
  8  9  1  0
  9 10  2  0
 10 11  1  0
 11 12  2  0
 12 13  1  0
 13  9  1  0
 14 15  1  0
 15  3  1  0
M  END
>  <Hit>  (244) 
Mpro-x0387_0

>  <Receptor>  (244) 
Mpro-x1249_0

>  <SCORE>  (244) 
-12.162100000000001

>  <SCORE.norm>  (244) 
-0.810805

>  <SCORE.heavy>  (244) 
15

>  <OrigSmiles>  (244) 
C#CC1(O)CCN(Cc2ncc[nH]2)CC1

>  <SuCOS_Score>  (244) 
0.44106116266605899

>  <Max_SuCOS_Score>  (244) 
0

>  <Cum_SuCOS_Score>  (244) 
0

>  <TransFSScore_50nM>  (244) 
0.0048089999999999999

>  <TransFSScore_1uM>  (244) 
0.050895999999999997

>  <TransFSScore_10nM>  (244) 
0.0078169999999999993

>  <TransFSScore_200nM>  (244) 
0.46560800000000002

>  <TransFSScore>  (244) 
0.1322825

>  <FeatureSteinScore>  (244) 
0.29857843769525916

>  <XCos_RefMols>  (244) 
x1392_0

>  <XCos_NumHits>  (244) 
1

>  <XCos_Score1>  (244) 
10.1475

>  <XCos_Score2>  (244) 
0.0000

>  <XCos_Score3>  (244) 
0.0000

$$$$
C#CC1(O)CCN(Cc2ncc[nH]2)CC1
     RDKit          3D

 15 16  0  0  0  0  0  0  0  0999 V2000
    8.5037   -2.3630   27.1410 C   0  0  0  0  0  0  0  0  0  0  0  0
    8.6008   -3.5073   26.7691 C   0  0  0  0  0  0  0  0  0  0  0  0
    8.7063   -4.9239   26.3255 C   0  0  0  0  0  0  0  0  0  0  0  0
    8.5966   -5.5409   27.5343 O   0  0  0  0  0  0  0  0  0  0  0  0
   10.0513   -5.1864   25.6653 C   0  0  0  0  0  0  0  0  0  0  0  0
   10.2509   -4.1266   24.5851 C   0  0  0  0  0  0  0  0  0  0  0  0
    8.9931   -3.7303   23.8975 N   0  0  0  0  0  0  0  0  0  0  0  0
    9.1455   -3.0683   22.5982 C   0  0  0  0  0  0  0  0  0  0  0  0
   10.1497   -1.9596   22.5729 C   0  0  0  0  0  0  0  0  0  0  0  0
   10.5459   -1.2970   23.6805 N   0  0  0  0  0  0  0  0  0  0  0  0
   11.4601   -0.4178   23.2241 C   0  0  0  0  0  0  0  0  0  0  0  0
   11.6020   -0.5651   21.8625 C   0  0  0  0  0  0  0  0  0  0  0  0
   10.7745   -1.5388   21.4557 N   0  0  0  0  0  0  0  0  0  0  0  0
    7.9566   -4.7884   23.8831 C   0  0  0  0  0  0  0  0  0  0  0  0
    7.5756   -5.2342   25.3237 C   0  0  0  0  0  0  0  0  0  0  0  0
  1  2  3  0
  2  3  1  0
  3  4  1  0
  3  5  1  0
  5  6  1  0
  6  7  1  0
  7  8  1  0
  7 14  1  0
  8  9  1  0
  9 10  2  0
 10 11  1  0
 11 12  2  0
 12 13  1  0
 13  9  1  0
 14 15  1  0
 15  3  1  0
M  END
>  <Hit>  (245) 
Mpro-x0387_0

>  <Receptor>  (245) 
Mpro-x1249_0

>  <SCORE>  (245) 
-12.1633

>  <SCORE.norm>  (245) 
-0.81088400000000005

>  <SCORE.heavy>  (245) 
15

>  <OrigSmiles>  (245) 
C#CC1(O)CCN(Cc2ncc[nH]2)CC1

>  <SuCOS_Score>  (245) 
0.41975673866427854

>  <Max_SuCOS_Score>  (245) 
0

>  <Cum_SuCOS_Score>  (245) 
0

>  <TransFSScore_50nM>  (245) 
0.0046699999999999997

>  <TransFSScore_1uM>  (245) 
0.047106000000000002

>  <TransFSScore_10nM>  (245) 
0.0076829999999999997

>  <TransFSScore_200nM>  (245) 
0.44450299999999998

>  <TransFSScore>  (245) 
0.12599050000000001

>  <FeatureSteinScore>  (245) 
0.29416803401745534

>  <XCos_RefMols>  (245) 
x1392_0

>  <XCos_NumHits>  (245) 
1

>  <XCos_Score1>  (245) 
10.3237

>  <XCos_Score2>  (245) 
0.0000

>  <XCos_Score3>  (245) 
0.0000

$$$$
C#CC1(O)CCN(Cc2ncc[nH]2)CC1
     RDKit          3D

 15 16  0  0  0  0  0  0  0  0999 V2000
    8.6938   -2.2756   27.1587 C   0  0  0  0  0  0  0  0  0  0  0  0
    8.7199   -3.4341   26.8208 C   0  0  0  0  0  0  0  0  0  0  0  0
    8.7534   -4.8562   26.3836 C   0  0  0  0  0  0  0  0  0  0  0  0
    8.6605   -5.4616   27.5998 O   0  0  0  0  0  0  0  0  0  0  0  0
   10.0634   -5.1763   25.6800 C   0  0  0  0  0  0  0  0  0  0  0  0
   10.2682   -4.1314   24.5863 C   0  0  0  0  0  0  0  0  0  0  0  0
    9.0045   -3.6887   23.9391 N   0  0  0  0  0  0  0  0  0  0  0  0
    9.1386   -3.0406   22.6308 C   0  0  0  0  0  0  0  0  0  0  0  0
   10.1166   -1.9092   22.5885 C   0  0  0  0  0  0  0  0  0  0  0  0
   10.4960   -1.2199   23.6857 N   0  0  0  0  0  0  0  0  0  0  0  0
   11.3899   -0.3270   23.2159 C   0  0  0  0  0  0  0  0  0  0  0  0
   11.5366   -0.4925   21.8569 C   0  0  0  0  0  0  0  0  0  0  0  0
   10.7326   -1.4918   21.4652 N   0  0  0  0  0  0  0  0  0  0  0  0
    7.9266   -4.7044   23.9672 C   0  0  0  0  0  0  0  0  0  0  0  0
    7.5775   -5.1265   25.4230 C   0  0  0  0  0  0  0  0  0  0  0  0
  1  2  3  0
  2  3  1  0
  3  4  1  0
  3  5  1  0
  5  6  1  0
  6  7  1  0
  7  8  1  0
  7 14  1  0
  8  9  1  0
  9 10  2  0
 10 11  1  0
 11 12  2  0
 12 13  1  0
 13  9  1  0
 14 15  1  0
 15  3  1  0
M  END
>  <Hit>  (246) 
Mpro-x0387_0

>  <Receptor>  (246) 
Mpro-x1249_0

>  <SCORE>  (246) 
-12.225300000000001

>  <SCORE.norm>  (246) 
-0.81501900000000005

>  <SCORE.heavy>  (246) 
15

>  <OrigSmiles>  (246) 
C#CC1(O)CCN(Cc2ncc[nH]2)CC1

>  <SuCOS_Score>  (246) 
0.43810587065156137

>  <Max_SuCOS_Score>  (246) 
0

>  <Cum_SuCOS_Score>  (246) 
0

>  <TransFSScore_50nM>  (246) 
0.0045529999999999998

>  <TransFSScore_1uM>  (246) 
0.048482999999999998

>  <TransFSScore_10nM>  (246) 
0.0077099999999999998

>  <TransFSScore_200nM>  (246) 
0.44818000000000002

>  <TransFSScore>  (246) 
0.1272315

>  <FeatureSteinScore>  (246) 
0.29874134140862674

>  <XCos_RefMols>  (246) 
x1392_0

>  <XCos_NumHits>  (246) 
1

>  <XCos_Score1>  (246) 
10.1165

>  <XCos_Score2>  (246) 
0.0572

>  <XCos_Score3>  (246) 
0.0056

$$$$
C#CC1(O)CCN(Cc2ncc[nH]2)CC1
     RDKit          3D

 15 16  0  0  0  0  0  0  0  0999 V2000
    9.7044   -2.0497   27.8687 C   0  0  0  0  0  0  0  0  0  0  0  0
    9.6250   -3.2216   27.5904 C   0  0  0  0  0  0  0  0  0  0  0  0
    9.5064   -4.6661   27.2528 C   0  0  0  0  0  0  0  0  0  0  0  0
    9.4582   -5.1823   28.5119 O   0  0  0  0  0  0  0  0  0  0  0  0
   10.7269   -5.1444   26.4811 C   0  0  0  0  0  0  0  0  0  0  0  0
   10.9323   -4.1933   25.3050 C   0  0  0  0  0  0  0  0  0  0  0  0
    9.6633   -3.6833   24.7207 N   0  0  0  0  0  0  0  0  0  0  0  0
    9.7489   -3.1342   23.3640 C   0  0  0  0  0  0  0  0  0  0  0  0
   10.7502   -2.0356   23.1938 C   0  0  0  0  0  0  0  0  0  0  0  0
   11.2808   -1.3532   24.2310 N   0  0  0  0  0  0  0  0  0  0  0  0
   12.1396   -0.4925   23.6488 C   0  0  0  0  0  0  0  0  0  0  0  0
   12.1162   -0.6702   22.2837 C   0  0  0  0  0  0  0  0  0  0  0  0
   11.2394   -1.6447   22.0008 N   0  0  0  0  0  0  0  0  0  0  0  0
    8.5103   -4.5963   24.8972 C   0  0  0  0  0  0  0  0  0  0  0  0
    8.2413   -4.8924   26.4003 C   0  0  0  0  0  0  0  0  0  0  0  0
  1  2  3  0
  2  3  1  0
  3  4  1  0
  3  5  1  0
  5  6  1  0
  6  7  1  0
  7  8  1  0
  7 14  1  0
  8  9  1  0
  9 10  2  0
 10 11  1  0
 11 12  2  0
 12 13  1  0
 13  9  1  0
 14 15  1  0
 15  3  1  0
M  END
>  <Hit>  (247) 
Mpro-x0387_0

>  <Receptor>  (247) 
Mpro-x0387_0

>  <SCORE>  (247) 
-12.7058

>  <SCORE.norm>  (247) 
-0.84705600000000003

>  <SCORE.heavy>  (247) 
15

>  <OrigSmiles>  (247) 
C#CC1(O)CCN(Cc2ncc[nH]2)CC1

>  <SuCOS_Score>  (247) 
0.52769093875502748

>  <Max_SuCOS_Score>  (247) 
0

>  <Cum_SuCOS_Score>  (247) 
0

>  <TransFSScore_50nM>  (247) 
0.003882

>  <TransFSScore_1uM>  (247) 
0.093900999999999998

>  <TransFSScore_10nM>  (247) 
0.0063699999999999998

>  <TransFSScore_200nM>  (247) 
0.42662499999999998

>  <TransFSScore>  (247) 
0.13269449999999999

>  <FeatureSteinScore>  (247) 
0.2306301200948197

>  <XCos_RefMols>  (247) 
x1392_0

>  <XCos_NumHits>  (247) 
1

>  <XCos_Score1>  (247) 
8.9196

>  <XCos_Score2>  (247) 
0.0504

>  <XCos_Score3>  (247) 
0.0056

$$$$
C#CC1(O)CCN(Cc2ncc[nH]2)CC1
     RDKit          3D

 15 16  0  0  0  0  0  0  0  0999 V2000
    9.6341   -2.1513   27.7677 C   0  0  0  0  0  0  0  0  0  0  0  0
    9.5484   -3.3197   27.4768 C   0  0  0  0  0  0  0  0  0  0  0  0
    9.4571   -4.7572   27.1027 C   0  0  0  0  0  0  0  0  0  0  0  0
    9.4150   -5.3057   28.3482 O   0  0  0  0  0  0  0  0  0  0  0  0
   10.6882   -5.1935   26.3230 C   0  0  0  0  0  0  0  0  0  0  0  0
   10.8793   -4.2096   25.1718 C   0  0  0  0  0  0  0  0  0  0  0  0
    9.6027   -3.7082   24.5965 N   0  0  0  0  0  0  0  0  0  0  0  0
    9.6819   -3.1237   23.2544 C   0  0  0  0  0  0  0  0  0  0  0  0
   10.7012   -2.0393   23.1015 C   0  0  0  0  0  0  0  0  0  0  0  0
   11.2155   -1.3568   24.1468 N   0  0  0  0  0  0  0  0  0  0  0  0
   12.0992   -0.5112   23.5801 C   0  0  0  0  0  0  0  0  0  0  0  0
   12.1065   -0.6977   22.2159 C   0  0  0  0  0  0  0  0  0  0  0  0
   11.2242   -1.6627   21.9181 N   0  0  0  0  0  0  0  0  0  0  0  0
    8.4661   -4.6463   24.7465 C   0  0  0  0  0  0  0  0  0  0  0  0
    8.1986   -4.9850   26.2408 C   0  0  0  0  0  0  0  0  0  0  0  0
  1  2  3  0
  2  3  1  0
  3  4  1  0
  3  5  1  0
  5  6  1  0
  6  7  1  0
  7  8  1  0
  7 14  1  0
  8  9  1  0
  9 10  2  0
 10 11  1  0
 11 12  2  0
 12 13  1  0
 13  9  1  0
 14 15  1  0
 15  3  1  0
M  END
>  <Hit>  (248) 
Mpro-x0387_0

>  <Receptor>  (248) 
Mpro-x0387_0

>  <SCORE>  (248) 
-12.729100000000001

>  <SCORE.norm>  (248) 
-0.84860800000000003

>  <SCORE.heavy>  (248) 
15

>  <OrigSmiles>  (248) 
C#CC1(O)CCN(Cc2ncc[nH]2)CC1

>  <SuCOS_Score>  (248) 
0.53102940659429787

>  <Max_SuCOS_Score>  (248) 
0

>  <Cum_SuCOS_Score>  (248) 
0

>  <TransFSScore_50nM>  (248) 
0.0046719999999999999

>  <TransFSScore_1uM>  (248) 
0.096926999999999999

>  <TransFSScore_10nM>  (248) 
0.0061789999999999996

>  <TransFSScore_200nM>  (248) 
0.429396

>  <TransFSScore>  (248) 
0.13429350000000001

>  <FeatureSteinScore>  (248) 
0.22558014620523309

>  <XCos_RefMols>  (248) 
x1392_0

>  <XCos_NumHits>  (248) 
1

>  <XCos_Score1>  (248) 
9.0606

>  <XCos_Score2>  (248) 
0.0512

>  <XCos_Score3>  (248) 
0.0056

$$$$
C#CC1(O)CCN(Cc2ncc[nH]2)CC1
     RDKit          3D

 15 16  0  0  0  0  0  0  0  0999 V2000
    9.6263   -2.0995   27.7966 C   0  0  0  0  0  0  0  0  0  0  0  0
    9.5237   -3.2623   27.4893 C   0  0  0  0  0  0  0  0  0  0  0  0
    9.3913   -4.7005   27.1306 C   0  0  0  0  0  0  0  0  0  0  0  0
    9.3278   -5.2336   28.3819 O   0  0  0  0  0  0  0  0  0  0  0  0
   10.6121   -5.1818   26.3613 C   0  0  0  0  0  0  0  0  0  0  0  0
   10.8371   -4.2169   25.2002 C   0  0  0  0  0  0  0  0  0  0  0  0
    9.5784   -3.6843   24.6138 N   0  0  0  0  0  0  0  0  0  0  0  0
    9.6805   -3.1174   23.2656 C   0  0  0  0  0  0  0  0  0  0  0  0
   10.7198   -2.0526   23.1098 C   0  0  0  0  0  0  0  0  0  0  0  0
   11.2521   -1.3821   24.1538 N   0  0  0  0  0  0  0  0  0  0  0  0
   12.1493   -0.5527   23.5844 C   0  0  0  0  0  0  0  0  0  0  0  0
   12.1466   -0.7369   22.2199 C   0  0  0  0  0  0  0  0  0  0  0  0
   11.2444   -1.6841   21.9246 N   0  0  0  0  0  0  0  0  0  0  0  0
    8.4138   -4.5865   24.7690 C   0  0  0  0  0  0  0  0  0  0  0  0
    8.1302   -4.9005   26.2657 C   0  0  0  0  0  0  0  0  0  0  0  0
  1  2  3  0
  2  3  1  0
  3  4  1  0
  3  5  1  0
  5  6  1  0
  6  7  1  0
  7  8  1  0
  7 14  1  0
  8  9  1  0
  9 10  2  0
 10 11  1  0
 11 12  2  0
 12 13  1  0
 13  9  1  0
 14 15  1  0
 15  3  1  0
M  END
>  <Hit>  (249) 
Mpro-x0387_0

>  <Receptor>  (249) 
Mpro-x0387_0

>  <SCORE>  (249) 
-12.735200000000001

>  <SCORE.norm>  (249) 
-0.84901499999999996

>  <SCORE.heavy>  (249) 
15

>  <OrigSmiles>  (249) 
C#CC1(O)CCN(Cc2ncc[nH]2)CC1

>  <SuCOS_Score>  (249) 
0.54224289654121771

>  <Max_SuCOS_Score>  (249) 
0

>  <Cum_SuCOS_Score>  (249) 
0

>  <TransFSScore_50nM>  (249) 
0.0039690000000000003

>  <TransFSScore_1uM>  (249) 
0.101608

>  <TransFSScore_10nM>  (249) 
0.0063330000000000001

>  <TransFSScore_200nM>  (249) 
0.40609499999999998

>  <TransFSScore>  (249) 
0.12950125000000001

>  <FeatureSteinScore>  (249) 
0.23384521360880015

>  <XCos_RefMols>  (249) 
x1392_0

>  <XCos_NumHits>  (249) 
1

>  <XCos_Score1>  (249) 
9.1558

>  <XCos_Score2>  (249) 
0.0517

>  <XCos_Score3>  (249) 
0.0056

$$$$
C#CC1(O)CCN(Cc2ncc[nH]2)CC1
     RDKit          3D

 15 16  0  0  0  0  0  0  0  0999 V2000
    9.6623   -2.1138   27.8245 C   0  0  0  0  0  0  0  0  0  0  0  0
    9.5388   -3.2787   27.5333 C   0  0  0  0  0  0  0  0  0  0  0  0
    9.4065   -4.7186   27.1815 C   0  0  0  0  0  0  0  0  0  0  0  0
    9.3542   -5.2468   28.4354 O   0  0  0  0  0  0  0  0  0  0  0  0
   10.6220   -5.2006   26.4043 C   0  0  0  0  0  0  0  0  0  0  0  0
   10.8356   -4.2399   25.2375 C   0  0  0  0  0  0  0  0  0  0  0  0
    9.5711   -3.7123   24.6591 N   0  0  0  0  0  0  0  0  0  0  0  0
    9.6611   -3.1506   23.3079 C   0  0  0  0  0  0  0  0  0  0  0  0
   10.6746   -2.0619   23.1472 C   0  0  0  0  0  0  0  0  0  0  0  0
   11.2054   -1.3877   24.1896 N   0  0  0  0  0  0  0  0  0  0  0  0
   12.0766   -0.5343   23.6154 C   0  0  0  0  0  0  0  0  0  0  0  0
   12.0602   -0.7080   22.2496 C   0  0  0  0  0  0  0  0  0  0  0  0
   11.1754   -1.6727   21.9584 N   0  0  0  0  0  0  0  0  0  0  0  0
    8.4097   -4.6162   24.8274 C   0  0  0  0  0  0  0  0  0  0  0  0
    8.1388   -4.9247   26.3277 C   0  0  0  0  0  0  0  0  0  0  0  0
  1  2  3  0
  2  3  1  0
  3  4  1  0
  3  5  1  0
  5  6  1  0
  6  7  1  0
  7  8  1  0
  7 14  1  0
  8  9  1  0
  9 10  2  0
 10 11  1  0
 11 12  2  0
 12 13  1  0
 13  9  1  0
 14 15  1  0
 15  3  1  0
M  END
>  <Hit>  (250) 
Mpro-x0387_0

>  <Receptor>  (250) 
Mpro-x0387_0

>  <SCORE>  (250) 
-12.7638

>  <SCORE.norm>  (250) 
-0.85092100000000004

>  <SCORE.heavy>  (250) 
15

>  <OrigSmiles>  (250) 
C#CC1(O)CCN(Cc2ncc[nH]2)CC1

>  <SuCOS_Score>  (250) 
0.52645347599935766

>  <Max_SuCOS_Score>  (250) 
0

>  <Cum_SuCOS_Score>  (250) 
0

>  <TransFSScore_50nM>  (250) 
0.004143

>  <TransFSScore_1uM>  (250) 
0.097777000000000003

>  <TransFSScore_10nM>  (250) 
0.0064749999999999999

>  <TransFSScore_200nM>  (250) 
0.408418

>  <TransFSScore>  (250) 
0.12920324999999999

>  <FeatureSteinScore>  (250) 
0.22426006202057253

>  <XCos_RefMols>  (250) 
x1392_0

>  <XCos_NumHits>  (250) 
1

>  <XCos_Score1>  (250) 
9.0826

>  <XCos_Score2>  (250) 
0.0513

>  <XCos_Score3>  (250) 
0.0056

$$$$
C#CC1(O)CCN(Cc2ncc[nH]2)CC1
     RDKit          3D

 15 16  0  0  0  0  0  0  0  0999 V2000
    9.6606   -2.1228   27.8022 C   0  0  0  0  0  0  0  0  0  0  0  0
    9.5836   -3.2889   27.4998 C   0  0  0  0  0  0  0  0  0  0  0  0
    9.4812   -4.7309   27.1465 C   0  0  0  0  0  0  0  0  0  0  0  0
    9.4369   -5.2610   28.3999 O   0  0  0  0  0  0  0  0  0  0  0  0
   10.7079   -5.1875   26.3716 C   0  0  0  0  0  0  0  0  0  0  0  0
   10.9045   -4.2217   25.2060 C   0  0  0  0  0  0  0  0  0  0  0  0
    9.6309   -3.7193   24.6253 N   0  0  0  0  0  0  0  0  0  0  0  0
    9.7124   -3.1548   23.2747 C   0  0  0  0  0  0  0  0  0  0  0  0
   10.7191   -2.0601   23.1120 C   0  0  0  0  0  0  0  0  0  0  0  0
   11.2363   -1.3721   24.1523 N   0  0  0  0  0  0  0  0  0  0  0  0
   12.1059   -0.5177   23.5771 C   0  0  0  0  0  0  0  0  0  0  0  0
   12.1021   -0.7045   22.2130 C   0  0  0  0  0  0  0  0  0  0  0  0
   11.2269   -1.6785   21.9237 N   0  0  0  0  0  0  0  0  0  0  0  0
    8.4877   -4.6467   24.7903 C   0  0  0  0  0  0  0  0  0  0  0  0
    8.2198   -4.9619   26.2898 C   0  0  0  0  0  0  0  0  0  0  0  0
  1  2  3  0
  2  3  1  0
  3  4  1  0
  3  5  1  0
  5  6  1  0
  6  7  1  0
  7  8  1  0
  7 14  1  0
  8  9  1  0
  9 10  2  0
 10 11  1  0
 11 12  2  0
 12 13  1  0
 13  9  1  0
 14 15  1  0
 15  3  1  0
M  END
>  <Hit>  (251) 
Mpro-x0387_0

>  <Receptor>  (251) 
Mpro-x0387_0

>  <SCORE>  (251) 
-12.788

>  <SCORE.norm>  (251) 
-0.85253299999999999

>  <SCORE.heavy>  (251) 
15

>  <OrigSmiles>  (251) 
C#CC1(O)CCN(Cc2ncc[nH]2)CC1

>  <SuCOS_Score>  (251) 
0.52704945290805894

>  <Max_SuCOS_Score>  (251) 
0

>  <Cum_SuCOS_Score>  (251) 
0

>  <TransFSScore_50nM>  (251) 
0.0042529999999999998

>  <TransFSScore_1uM>  (251) 
0.095280000000000004

>  <TransFSScore_10nM>  (251) 
0.0057939999999999997

>  <TransFSScore_200nM>  (251) 
0.42307800000000001

>  <TransFSScore>  (251) 
0.13210125

>  <FeatureSteinScore>  (251) 
0.22236031565566233

>  <XCos_RefMols>  (251) 
x1392_0

>  <XCos_NumHits>  (251) 
1

>  <XCos_Score1>  (251) 
9.0013

>  <XCos_Score2>  (251) 
0.0509

>  <XCos_Score3>  (251) 
0.0056

$$$$
C#CC1(O)CCN(Cc2ncccn2)CC1
     RDKit          3D

 16 17  0  0  0  0  0  0  0  0999 V2000
    8.1118   -5.7590   28.6021 C   0  0  0  0  0  0  0  0  0  0  0  0
    8.6441   -5.6082   27.5305 C   0  0  0  0  0  0  0  0  0  0  0  0
    9.2950   -5.4235   26.2198 C   0  0  0  0  0  0  0  0  0  0  0  0
    9.8352   -6.6676   25.8533 O   0  0  0  0  0  0  0  0  0  0  0  0
    8.2169   -5.0187   25.2070 C   0  0  0  0  0  0  0  0  0  0  0  0
    8.8012   -4.5031   23.8902 C   0  0  0  0  0  0  0  0  0  0  0  0
    9.9274   -3.5504   24.0711 N   0  0  0  0  0  0  0  0  0  0  0  0
   10.0933   -2.4713   23.0756 C   0  0  0  0  0  0  0  0  0  0  0  0
   11.3071   -1.6100   23.2514 C   0  0  0  0  0  0  0  0  0  0  0  0
   11.2736   -0.5767   24.1364 N   0  0  0  0  0  0  0  0  0  0  0  0
   12.3435    0.2437   24.2963 C   0  0  0  0  0  0  0  0  0  0  0  0
   13.4962    0.0369   23.5413 C   0  0  0  0  0  0  0  0  0  0  0  0
   13.5144   -1.0190   22.6315 C   0  0  0  0  0  0  0  0  0  0  0  0
   12.4248   -1.8212   22.4979 N   0  0  0  0  0  0  0  0  0  0  0  0
   10.1738   -3.1214   25.4581 C   0  0  0  0  0  0  0  0  0  0  0  0
   10.4159   -4.3547   26.3464 C   0  0  0  0  0  0  0  0  0  0  0  0
  1  2  3  0
  2  3  1  0
  3  4  1  0
  3  5  1  0
  5  6  1  0
  6  7  1  0
  7  8  1  0
  7 15  1  0
  8  9  1  0
  9 10  2  0
 10 11  1  0
 11 12  2  0
 12 13  1  0
 13 14  2  0
 14  9  1  0
 15 16  1  0
 16  3  1  0
M  END
>  <Hit>  (252) 
Mpro-x0387_0

>  <Receptor>  (252) 
Mpro-x0387_0

>  <SCORE>  (252) 
-11.886900000000001

>  <SCORE.norm>  (252) 
-0.74292899999999995

>  <SCORE.heavy>  (252) 
16

>  <OrigSmiles>  (252) 
C#CC1(O)CCN(Cc2ncccn2)CC1

>  <SuCOS_Score>  (252) 
0.55718767107870193

>  <Max_SuCOS_Score>  (252) 
0

>  <Cum_SuCOS_Score>  (252) 
0

>  <TransFSScore_50nM>  (252) 
0.041167000000000002

>  <TransFSScore_1uM>  (252) 
0.041084000000000002

>  <TransFSScore_10nM>  (252) 
0.0079039999999999996

>  <TransFSScore_200nM>  (252) 
0.070702000000000001

>  <TransFSScore>  (252) 
0.04021425

>  <FeatureSteinScore>  (252) 
0.3654082926411012

>  <XCos_RefMols>  (252) 
x1392_0,x0387_0,x1385_0

>  <XCos_NumHits>  (252) 
3

>  <XCos_Score1>  (252) 
11.6121

>  <XCos_Score2>  (252) 
0.1312

>  <XCos_Score3>  (252) 
0.0113

$$$$
C#CC1(O)CCN(Cc2ncccn2)CC1
     RDKit          3D

 16 17  0  0  0  0  0  0  0  0999 V2000
    8.1143   -5.8299   28.5314 C   0  0  0  0  0  0  0  0  0  0  0  0
    8.6541   -5.6573   27.4669 C   0  0  0  0  0  0  0  0  0  0  0  0
    9.3142   -5.4464   26.1649 C   0  0  0  0  0  0  0  0  0  0  0  0
    9.8642   -6.6811   25.7812 O   0  0  0  0  0  0  0  0  0  0  0  0
    8.2419   -5.0299   25.1507 C   0  0  0  0  0  0  0  0  0  0  0  0
    8.8336   -4.4885   23.8476 C   0  0  0  0  0  0  0  0  0  0  0  0
    9.9531   -3.5330   24.0538 N   0  0  0  0  0  0  0  0  0  0  0  0
   10.1207   -2.4360   23.0785 C   0  0  0  0  0  0  0  0  0  0  0  0
   11.3405   -1.5855   23.2649 C   0  0  0  0  0  0  0  0  0  0  0  0
   11.3164   -0.5671   24.1673 N   0  0  0  0  0  0  0  0  0  0  0  0
   12.3919    0.2438   24.3376 C   0  0  0  0  0  0  0  0  0  0  0  0
   13.5409    0.0425   23.5756 C   0  0  0  0  0  0  0  0  0  0  0  0
   13.5497   -0.9981   22.6481 C   0  0  0  0  0  0  0  0  0  0  0  0
   12.4546   -1.7910   22.5044 N   0  0  0  0  0  0  0  0  0  0  0  0
   10.1862   -3.1268   25.4499 C   0  0  0  0  0  0  0  0  0  0  0  0
   10.4282   -4.3740   26.3187 C   0  0  0  0  0  0  0  0  0  0  0  0
  1  2  3  0
  2  3  1  0
  3  4  1  0
  3  5  1  0
  5  6  1  0
  6  7  1  0
  7  8  1  0
  7 15  1  0
  8  9  1  0
  9 10  2  0
 10 11  1  0
 11 12  2  0
 12 13  1  0
 13 14  2  0
 14  9  1  0
 15 16  1  0
 16  3  1  0
M  END
>  <Hit>  (253) 
Mpro-x0387_0

>  <Receptor>  (253) 
Mpro-x0387_0

>  <SCORE>  (253) 
-11.9175

>  <SCORE.norm>  (253) 
-0.74484099999999998

>  <SCORE.heavy>  (253) 
16

>  <OrigSmiles>  (253) 
C#CC1(O)CCN(Cc2ncccn2)CC1

>  <SuCOS_Score>  (253) 
0.55265688114059464

>  <Max_SuCOS_Score>  (253) 
0

>  <Cum_SuCOS_Score>  (253) 
0

>  <TransFSScore_50nM>  (253) 
0.038432000000000001

>  <TransFSScore_1uM>  (253) 
0.039655000000000003

>  <TransFSScore_10nM>  (253) 
0.0077920000000000003

>  <TransFSScore_200nM>  (253) 
0.064760999999999999

>  <TransFSScore>  (253) 
0.037659999999999999

>  <FeatureSteinScore>  (253) 
0.36417297867579157

>  <XCos_RefMols>  (253) 
x1392_0,x0387_0,x1385_0

>  <XCos_NumHits>  (253) 
3

>  <XCos_Score1>  (253) 
11.5945

>  <XCos_Score2>  (253) 
0.0655

>  <XCos_Score3>  (253) 
0.0056

$$$$
C#CC1(O)CCN(Cc2ncccn2)CC1
     RDKit          3D

 16 17  0  0  0  0  0  0  0  0999 V2000
    7.5607   -6.3310   27.7292 C   0  0  0  0  0  0  0  0  0  0  0  0
    8.1214   -5.9647   26.7263 C   0  0  0  0  0  0  0  0  0  0  0  0
    8.8075   -5.5166   25.4999 C   0  0  0  0  0  0  0  0  0  0  0  0
    9.5989   -6.5906   25.0592 O   0  0  0  0  0  0  0  0  0  0  0  0
    7.7391   -5.2053   24.4447 C   0  0  0  0  0  0  0  0  0  0  0  0
    8.2968   -4.4457   23.2393 C   0  0  0  0  0  0  0  0  0  0  0  0
    9.2053   -3.3287   23.6077 N   0  0  0  0  0  0  0  0  0  0  0  0
    9.2245   -2.1321   22.7413 C   0  0  0  0  0  0  0  0  0  0  0  0
   10.5117   -1.3647   22.7265 C   0  0  0  0  0  0  0  0  0  0  0  0
   10.8876   -0.6644   23.8311 N   0  0  0  0  0  0  0  0  0  0  0  0
   12.0305    0.0685   23.8407 C   0  0  0  0  0  0  0  0  0  0  0  0
   12.8342    0.1165   22.7036 C   0  0  0  0  0  0  0  0  0  0  0  0
   12.4333   -0.5975   21.5756 C   0  0  0  0  0  0  0  0  0  0  0  0
   11.2827   -1.3215   21.6016 N   0  0  0  0  0  0  0  0  0  0  0  0
    9.2751   -3.0211   25.0462 C   0  0  0  0  0  0  0  0  0  0  0  0
    9.6920   -4.2811   25.8255 C   0  0  0  0  0  0  0  0  0  0  0  0
  1  2  3  0
  2  3  1  0
  3  4  1  0
  3  5  1  0
  5  6  1  0
  6  7  1  0
  7  8  1  0
  7 15  1  0
  8  9  1  0
  9 10  2  0
 10 11  1  0
 11 12  2  0
 12 13  1  0
 13 14  2  0
 14  9  1  0
 15 16  1  0
 16  3  1  0
M  END
>  <Hit>  (254) 
Mpro-x0387_0

>  <Receptor>  (254) 
Mpro-x0874_0

>  <SCORE>  (254) 
-12.0358

>  <SCORE.norm>  (254) 
-0.75223499999999999

>  <SCORE.heavy>  (254) 
16

>  <OrigSmiles>  (254) 
C#CC1(O)CCN(Cc2ncccn2)CC1

>  <SuCOS_Score>  (254) 
0.42672341516246615

>  <Max_SuCOS_Score>  (254) 
0

>  <Cum_SuCOS_Score>  (254) 
0

>  <TransFSScore_50nM>  (254) 
0.039319

>  <TransFSScore_1uM>  (254) 
0.046804999999999999

>  <TransFSScore_10nM>  (254) 
0.055157999999999999

>  <TransFSScore_200nM>  (254) 
0.064785999999999996

>  <TransFSScore>  (254) 
0.051517000000000007

>  <FeatureSteinScore>  (254) 
0.40856579635236845

>  <XCos_RefMols>  (254) 
x1392_0,x1382_0

>  <XCos_NumHits>  (254) 
2

>  <XCos_Score1>  (254) 
11.8691

>  <XCos_Score2>  (254) 
0.1341

>  <XCos_Score3>  (254) 
0.0113

$$$$
C#CC1(O)CCN(Cc2ncccn2)CC1
     RDKit          3D

 16 17  0  0  0  0  0  0  0  0999 V2000
    7.5660   -6.3493   27.7514 C   0  0  0  0  0  0  0  0  0  0  0  0
    8.1300   -5.9811   26.7510 C   0  0  0  0  0  0  0  0  0  0  0  0
    8.8200   -5.5310   25.5275 C   0  0  0  0  0  0  0  0  0  0  0  0
    9.6120   -6.6046   25.0870 O   0  0  0  0  0  0  0  0  0  0  0  0
    7.7549   -5.2167   24.4698 C   0  0  0  0  0  0  0  0  0  0  0  0
    8.3168   -4.4551   23.2675 C   0  0  0  0  0  0  0  0  0  0  0  0
    9.2248   -3.3395   23.6410 N   0  0  0  0  0  0  0  0  0  0  0  0
    9.2474   -2.1411   22.7771 C   0  0  0  0  0  0  0  0  0  0  0  0
   10.5374   -1.3784   22.7624 C   0  0  0  0  0  0  0  0  0  0  0  0
   10.9311   -0.7055   23.8778 N   0  0  0  0  0  0  0  0  0  0  0  0
   12.0769    0.0228   23.8888 C   0  0  0  0  0  0  0  0  0  0  0  0
   12.8652    0.0945   22.7422 C   0  0  0  0  0  0  0  0  0  0  0  0
   12.4461   -0.5915   21.6034 C   0  0  0  0  0  0  0  0  0  0  0  0
   11.2931   -1.3117   21.6284 N   0  0  0  0  0  0  0  0  0  0  0  0
    9.2907   -3.0349   25.0802 C   0  0  0  0  0  0  0  0  0  0  0  0
    9.7044   -4.2967   25.8582 C   0  0  0  0  0  0  0  0  0  0  0  0
  1  2  3  0
  2  3  1  0
  3  4  1  0
  3  5  1  0
  5  6  1  0
  6  7  1  0
  7  8  1  0
  7 15  1  0
  8  9  1  0
  9 10  2  0
 10 11  1  0
 11 12  2  0
 12 13  1  0
 13 14  2  0
 14  9  1  0
 15 16  1  0
 16  3  1  0
M  END
>  <Hit>  (255) 
Mpro-x0387_0

>  <Receptor>  (255) 
Mpro-x0874_0

>  <SCORE>  (255) 
-12.045500000000001

>  <SCORE.norm>  (255) 
-0.75284099999999998

>  <SCORE.heavy>  (255) 
16

>  <OrigSmiles>  (255) 
C#CC1(O)CCN(Cc2ncccn2)CC1

>  <SuCOS_Score>  (255) 
0.43760440934243794

>  <Max_SuCOS_Score>  (255) 
0

>  <Cum_SuCOS_Score>  (255) 
0

>  <TransFSScore_50nM>  (255) 
0.041341999999999997

>  <TransFSScore_1uM>  (255) 
0.046927999999999997

>  <TransFSScore_10nM>  (255) 
0.054489000000000003

>  <TransFSScore_200nM>  (255) 
0.063370999999999997

>  <TransFSScore>  (255) 
0.051532499999999995

>  <FeatureSteinScore>  (255) 
0.41182138147283714

>  <XCos_RefMols>  (255) 
x1392_0,x1382_0

>  <XCos_NumHits>  (255) 
2

>  <XCos_Score1>  (255) 
11.8912

>  <XCos_Score2>  (255) 
0.1344

>  <XCos_Score3>  (255) 
0.0113

$$$$
C#CC1(O)CCN(Cc2ncccn2)CC1
     RDKit          3D

 16 17  0  0  0  0  0  0  0  0999 V2000
    7.5337   -6.3754   27.9277 C   0  0  0  0  0  0  0  0  0  0  0  0
    8.0822   -6.0068   26.9189 C   0  0  0  0  0  0  0  0  0  0  0  0
    8.7534   -5.5562   25.6852 C   0  0  0  0  0  0  0  0  0  0  0  0
    9.5272   -6.6345   25.2242 O   0  0  0  0  0  0  0  0  0  0  0  0
    7.6717   -5.2266   24.6492 C   0  0  0  0  0  0  0  0  0  0  0  0
    8.2179   -4.4635   23.4407 C   0  0  0  0  0  0  0  0  0  0  0  0
    9.1429   -3.3581   23.8030 N   0  0  0  0  0  0  0  0  0  0  0  0
    9.1602   -2.1553   22.9452 C   0  0  0  0  0  0  0  0  0  0  0  0
   10.4424   -1.3794   22.9449 C   0  0  0  0  0  0  0  0  0  0  0  0
   10.8059   -0.6845   24.0571 N   0  0  0  0  0  0  0  0  0  0  0  0
   11.9438    0.0558   24.0799 C   0  0  0  0  0  0  0  0  0  0  0  0
   12.7551    0.1173   22.9489 C   0  0  0  0  0  0  0  0  0  0  0  0
   12.3669   -0.5913   21.8130 C   0  0  0  0  0  0  0  0  0  0  0  0
   11.2210   -1.3231   21.8258 N   0  0  0  0  0  0  0  0  0  0  0  0
    9.2383   -3.0620   25.2424 C   0  0  0  0  0  0  0  0  0  0  0  0
    9.6550   -4.3318   26.0059 C   0  0  0  0  0  0  0  0  0  0  0  0
  1  2  3  0
  2  3  1  0
  3  4  1  0
  3  5  1  0
  5  6  1  0
  6  7  1  0
  7  8  1  0
  7 15  1  0
  8  9  1  0
  9 10  2  0
 10 11  1  0
 11 12  2  0
 12 13  1  0
 13 14  2  0
 14  9  1  0
 15 16  1  0
 16  3  1  0
M  END
>  <Hit>  (256) 
Mpro-x0387_0

>  <Receptor>  (256) 
Mpro-x0874_0

>  <SCORE>  (256) 
-12.1289

>  <SCORE.norm>  (256) 
-0.75805800000000001

>  <SCORE.heavy>  (256) 
16

>  <OrigSmiles>  (256) 
C#CC1(O)CCN(Cc2ncccn2)CC1

>  <SuCOS_Score>  (256) 
0.45084726538567255

>  <Max_SuCOS_Score>  (256) 
0

>  <Cum_SuCOS_Score>  (256) 
0

>  <TransFSScore_50nM>  (256) 
0.046824999999999999

>  <TransFSScore_1uM>  (256) 
0.045393000000000003

>  <TransFSScore_10nM>  (256) 
0.042479999999999997

>  <TransFSScore_200nM>  (256) 
0.051264999999999998

>  <TransFSScore>  (256) 
0.046490749999999997

>  <FeatureSteinScore>  (256) 
0.4531823141981946

>  <XCos_RefMols>  (256) 
x0708_0,x1382_0

>  <XCos_NumHits>  (256) 
2

>  <XCos_Score1>  (256) 
11.9867

>  <XCos_Score2>  (256) 
0.2032

>  <XCos_Score3>  (256) 
0.0169

$$$$
C#CC1(O)CCN(Cc2ncccn2)CC1
     RDKit          3D

 16 17  0  0  0  0  0  0  0  0999 V2000
    7.5523   -6.3789   27.8920 C   0  0  0  0  0  0  0  0  0  0  0  0
    8.0961   -6.0050   26.8826 C   0  0  0  0  0  0  0  0  0  0  0  0
    8.7615   -5.5474   25.6483 C   0  0  0  0  0  0  0  0  0  0  0  0
    9.5334   -6.6230   25.1779 O   0  0  0  0  0  0  0  0  0  0  0  0
    7.6750   -5.2124   24.6192 C   0  0  0  0  0  0  0  0  0  0  0  0
    8.2155   -4.4424   23.4124 C   0  0  0  0  0  0  0  0  0  0  0  0
    9.1419   -3.3389   23.7766 N   0  0  0  0  0  0  0  0  0  0  0  0
    9.1550   -2.1314   22.9254 C   0  0  0  0  0  0  0  0  0  0  0  0
   10.4355   -1.3525   22.9271 C   0  0  0  0  0  0  0  0  0  0  0  0
   10.7961   -0.6577   24.0403 N   0  0  0  0  0  0  0  0  0  0  0  0
   11.9323    0.0851   24.0650 C   0  0  0  0  0  0  0  0  0  0  0  0
   12.7448    0.1494   22.9350 C   0  0  0  0  0  0  0  0  0  0  0  0
   12.3594   -0.5592   21.7981 C   0  0  0  0  0  0  0  0  0  0  0  0
   11.2152   -1.2935   21.8090 N   0  0  0  0  0  0  0  0  0  0  0  0
    9.2438   -3.0507   25.2171 C   0  0  0  0  0  0  0  0  0  0  0  0
    9.6643   -4.3246   25.9716 C   0  0  0  0  0  0  0  0  0  0  0  0
  1  2  3  0
  2  3  1  0
  3  4  1  0
  3  5  1  0
  5  6  1  0
  6  7  1  0
  7  8  1  0
  7 15  1  0
  8  9  1  0
  9 10  2  0
 10 11  1  0
 11 12  2  0
 12 13  1  0
 13 14  2  0
 14  9  1  0
 15 16  1  0
 16  3  1  0
M  END
>  <Hit>  (257) 
Mpro-x0387_0

>  <Receptor>  (257) 
Mpro-x0874_0

>  <SCORE>  (257) 
-12.1982

>  <SCORE.norm>  (257) 
-0.76238700000000004

>  <SCORE.heavy>  (257) 
16

>  <OrigSmiles>  (257) 
C#CC1(O)CCN(Cc2ncccn2)CC1

>  <SuCOS_Score>  (257) 
0.44690272416840365

>  <Max_SuCOS_Score>  (257) 
0

>  <Cum_SuCOS_Score>  (257) 
0

>  <TransFSScore_50nM>  (257) 
0.046431

>  <TransFSScore_1uM>  (257) 
0.047029000000000001

>  <TransFSScore_10nM>  (257) 
0.045478999999999999

>  <TransFSScore_200nM>  (257) 
0.051791999999999998

>  <TransFSScore>  (257) 
0.047682750000000003

>  <FeatureSteinScore>  (257) 
0.45183198023307497

>  <XCos_RefMols>  (257) 
x0708_0,x1382_0

>  <XCos_NumHits>  (257) 
2

>  <XCos_Score1>  (257) 
12.0091

>  <XCos_Score2>  (257) 
0.2035

>  <XCos_Score3>  (257) 
0.0169

$$$$
C#CC1(O)CCN(Cc2ncccn2)CC1
     RDKit          3D

 16 17  0  0  0  0  0  0  0  0999 V2000
    7.6259   -6.3109   27.8873 C   0  0  0  0  0  0  0  0  0  0  0  0
    8.1491   -5.9530   26.8614 C   0  0  0  0  0  0  0  0  0  0  0  0
    8.7890   -5.5150   25.6067 C   0  0  0  0  0  0  0  0  0  0  0  0
    9.5551   -6.5963   25.1400 O   0  0  0  0  0  0  0  0  0  0  0  0
    7.6818   -5.2009   24.5932 C   0  0  0  0  0  0  0  0  0  0  0  0
    8.1964   -4.4504   23.3632 C   0  0  0  0  0  0  0  0  0  0  0  0
    9.1262   -3.3381   23.6902 N   0  0  0  0  0  0  0  0  0  0  0  0
    9.1191   -2.1454   22.8183 C   0  0  0  0  0  0  0  0  0  0  0  0
   10.3734   -1.3252   22.8337 C   0  0  0  0  0  0  0  0  0  0  0  0
   10.6963   -0.6148   23.9486 N   0  0  0  0  0  0  0  0  0  0  0  0
   11.8072    0.1648   23.9853 C   0  0  0  0  0  0  0  0  0  0  0  0
   12.6322    0.2512   22.8658 C   0  0  0  0  0  0  0  0  0  0  0  0
   12.2854   -0.4739   21.7269 C   0  0  0  0  0  0  0  0  0  0  0  0
   11.1657   -1.2451   21.7258 N   0  0  0  0  0  0  0  0  0  0  0  0
    9.2551   -3.0248   25.1234 C   0  0  0  0  0  0  0  0  0  0  0  0
    9.6940   -4.2842   25.8914 C   0  0  0  0  0  0  0  0  0  0  0  0
  1  2  3  0
  2  3  1  0
  3  4  1  0
  3  5  1  0
  5  6  1  0
  6  7  1  0
  7  8  1  0
  7 15  1  0
  8  9  1  0
  9 10  2  0
 10 11  1  0
 11 12  2  0
 12 13  1  0
 13 14  2  0
 14  9  1  0
 15 16  1  0
 16  3  1  0
M  END
>  <Hit>  (258) 
Mpro-x0387_0

>  <Receptor>  (258) 
Mpro-x0874_0

>  <SCORE>  (258) 
-12.2189

>  <SCORE.norm>  (258) 
-0.763679

>  <SCORE.heavy>  (258) 
16

>  <OrigSmiles>  (258) 
C#CC1(O)CCN(Cc2ncccn2)CC1

>  <SuCOS_Score>  (258) 
0.42347063975257948

>  <Max_SuCOS_Score>  (258) 
0

>  <Cum_SuCOS_Score>  (258) 
0

>  <TransFSScore_50nM>  (258) 
0.038377000000000001

>  <TransFSScore_1uM>  (258) 
0.047622999999999999

>  <TransFSScore_10nM>  (258) 
0.053183000000000001

>  <TransFSScore_200nM>  (258) 
0.053352999999999998

>  <TransFSScore>  (258) 
0.048133999999999996

>  <FeatureSteinScore>  (258) 
0.44543331619466564

>  <XCos_RefMols>  (258) 
x0708_0,x1382_0,x1385_0

>  <XCos_NumHits>  (258) 
3

>  <XCos_Score1>  (258) 
12.1383

>  <XCos_Score2>  (258) 
0.2057

>  <XCos_Score3>  (258) 
0.0169

$$$$
C#CC1(O)CCN(Cc2ncccn2)CC1
     RDKit          3D

 16 17  0  0  0  0  0  0  0  0999 V2000
    7.6630   -6.3154   28.1997 C   0  0  0  0  0  0  0  0  0  0  0  0
    8.1998   -6.0110   27.1636 C   0  0  0  0  0  0  0  0  0  0  0  0
    8.8566   -5.6385   25.8965 C   0  0  0  0  0  0  0  0  0  0  0  0
    9.5766   -6.7646   25.4634 O   0  0  0  0  0  0  0  0  0  0  0  0
    7.7627   -5.3096   24.8733 C   0  0  0  0  0  0  0  0  0  0  0  0
    8.3073   -4.6191   23.6212 C   0  0  0  0  0  0  0  0  0  0  0  0
    9.2829   -3.5371   23.9147 N   0  0  0  0  0  0  0  0  0  0  0  0
    9.3249   -2.3723   23.0067 C   0  0  0  0  0  0  0  0  0  0  0  0
   10.5905   -1.5704   23.0413 C   0  0  0  0  0  0  0  0  0  0  0  0
   10.9365   -0.9125   24.1813 N   0  0  0  0  0  0  0  0  0  0  0  0
   12.0585   -0.1501   24.2372 C   0  0  0  0  0  0  0  0  0  0  0  0
   12.8713   -0.0271   23.1122 C   0  0  0  0  0  0  0  0  0  0  0  0
   12.5009   -0.6982   21.9480 C   0  0  0  0  0  0  0  0  0  0  0  0
   11.3707   -1.4537   21.9280 N   0  0  0  0  0  0  0  0  0  0  0  0
    9.4257   -3.1859   25.3376 C   0  0  0  0  0  0  0  0  0  0  0  0
    9.8123   -4.4385   26.1440 C   0  0  0  0  0  0  0  0  0  0  0  0
  1  2  3  0
  2  3  1  0
  3  4  1  0
  3  5  1  0
  5  6  1  0
  6  7  1  0
  7  8  1  0
  7 15  1  0
  8  9  1  0
  9 10  2  0
 10 11  1  0
 11 12  2  0
 12 13  1  0
 13 14  2  0
 14  9  1  0
 15 16  1  0
 16  3  1  0
M  END
>  <Hit>  (259) 
Mpro-x0387_0

>  <Receptor>  (259) 
Mpro-x0305_0

>  <SCORE>  (259) 
-12.297599999999999

>  <SCORE.norm>  (259) 
-0.76859999999999995

>  <SCORE.heavy>  (259) 
16

>  <OrigSmiles>  (259) 
C#CC1(O)CCN(Cc2ncccn2)CC1

>  <SuCOS_Score>  (259) 
0.48656300677530151

>  <Max_SuCOS_Score>  (259) 
0

>  <Cum_SuCOS_Score>  (259) 
0

>  <TransFSScore_50nM>  (259) 
0.072091000000000002

>  <TransFSScore_1uM>  (259) 
0.035566

>  <TransFSScore_10nM>  (259) 
0.043062999999999997

>  <TransFSScore_200nM>  (259) 
0.080945000000000003

>  <TransFSScore>  (259) 
0.057916250000000002

>  <FeatureSteinScore>  (259) 
0.41866821193217907

>  <XCos_RefMols>  (259) 
x1392_0,x1382_0,x1385_0

>  <XCos_NumHits>  (259) 
3

>  <XCos_Score1>  (259) 
12.0500

>  <XCos_Score2>  (259) 
0.2042

>  <XCos_Score3>  (259) 
0.0169

$$$$
C#CC1(O)CCN(Cc2ncccn2)CC1
     RDKit          3D

 16 17  0  0  0  0  0  0  0  0999 V2000
    7.6721   -6.2979   28.2566 C   0  0  0  0  0  0  0  0  0  0  0  0
    8.1981   -5.9999   27.2132 C   0  0  0  0  0  0  0  0  0  0  0  0
    8.8418   -5.6353   25.9371 C   0  0  0  0  0  0  0  0  0  0  0  0
    9.5404   -6.7706   25.4931 O   0  0  0  0  0  0  0  0  0  0  0  0
    7.7379   -5.2910   24.9297 C   0  0  0  0  0  0  0  0  0  0  0  0
    8.2738   -4.6069   23.6703 C   0  0  0  0  0  0  0  0  0  0  0  0
    9.2679   -3.5382   23.9505 N   0  0  0  0  0  0  0  0  0  0  0  0
    9.3125   -2.3734   23.0427 C   0  0  0  0  0  0  0  0  0  0  0  0
   10.5921   -1.5933   23.0538 C   0  0  0  0  0  0  0  0  0  0  0  0
   10.9754   -0.9500   24.1901 N   0  0  0  0  0  0  0  0  0  0  0  0
   12.1112   -0.2070   24.2254 C   0  0  0  0  0  0  0  0  0  0  0  0
   12.8999   -0.0893   23.0828 C   0  0  0  0  0  0  0  0  0  0  0  0
   12.4914   -0.7453   21.9227 C   0  0  0  0  0  0  0  0  0  0  0  0
   11.3482   -1.4814   21.9235 N   0  0  0  0  0  0  0  0  0  0  0  0
    9.4356   -3.1900   25.3715 C   0  0  0  0  0  0  0  0  0  0  0  0
    9.8168   -4.4483   26.1716 C   0  0  0  0  0  0  0  0  0  0  0  0
  1  2  3  0
  2  3  1  0
  3  4  1  0
  3  5  1  0
  5  6  1  0
  6  7  1  0
  7  8  1  0
  7 15  1  0
  8  9  1  0
  9 10  2  0
 10 11  1  0
 11 12  2  0
 12 13  1  0
 13 14  2  0
 14  9  1  0
 15 16  1  0
 16  3  1  0
M  END
>  <Hit>  (260) 
Mpro-x0387_0

>  <Receptor>  (260) 
Mpro-x0305_0

>  <SCORE>  (260) 
-12.303900000000001

>  <SCORE.norm>  (260) 
-0.76899600000000001

>  <SCORE.heavy>  (260) 
16

>  <OrigSmiles>  (260) 
C#CC1(O)CCN(Cc2ncccn2)CC1

>  <SuCOS_Score>  (260) 
0.49124464142170876

>  <Max_SuCOS_Score>  (260) 
0

>  <Cum_SuCOS_Score>  (260) 
0

>  <TransFSScore_50nM>  (260) 
0.069638000000000005

>  <TransFSScore_1uM>  (260) 
0.034569999999999997

>  <TransFSScore_10nM>  (260) 
0.038932000000000001

>  <TransFSScore_200nM>  (260) 
0.082145999999999997

>  <TransFSScore>  (260) 
0.056321499999999997

>  <FeatureSteinScore>  (260) 
0.42282002568448546

>  <XCos_RefMols>  (260) 
x1392_0,x1382_0,x1385_0

>  <XCos_NumHits>  (260) 
3

>  <XCos_Score1>  (260) 
12.0089

>  <XCos_Score2>  (260) 
0.2035

>  <XCos_Score3>  (260) 
0.0169

$$$$
C#CC1(O)CCN(Cc2ncccn2)CC1
     RDKit          3D

 16 17  0  0  0  0  0  0  0  0999 V2000
    7.7545   -6.2573   28.2929 C   0  0  0  0  0  0  0  0  0  0  0  0
    8.2621   -5.9641   27.2390 C   0  0  0  0  0  0  0  0  0  0  0  0
    8.8828   -5.6055   25.9499 C   0  0  0  0  0  0  0  0  0  0  0  0
    9.5613   -6.7474   25.4918 O   0  0  0  0  0  0  0  0  0  0  0  0
    7.7618   -5.2507   24.9653 C   0  0  0  0  0  0  0  0  0  0  0  0
    8.2782   -4.5717   23.6951 C   0  0  0  0  0  0  0  0  0  0  0  0
    9.2879   -3.5125   23.9546 N   0  0  0  0  0  0  0  0  0  0  0  0
    9.3249   -2.3482   23.0459 C   0  0  0  0  0  0  0  0  0  0  0  0
   10.6022   -1.5642   23.0506 C   0  0  0  0  0  0  0  0  0  0  0  0
   10.9819   -0.9080   24.1807 N   0  0  0  0  0  0  0  0  0  0  0  0
   12.1155   -0.1614   24.2100 C   0  0  0  0  0  0  0  0  0  0  0  0
   12.9055   -0.0533   23.0674 C   0  0  0  0  0  0  0  0  0  0  0  0
   12.5007   -0.7225   21.9136 C   0  0  0  0  0  0  0  0  0  0  0  0
   11.3597   -1.4620   21.9204 N   0  0  0  0  0  0  0  0  0  0  0  0
    9.4881   -3.1660   25.3718 C   0  0  0  0  0  0  0  0  0  0  0  0
    9.8738   -4.4278   26.1640 C   0  0  0  0  0  0  0  0  0  0  0  0
  1  2  3  0
  2  3  1  0
  3  4  1  0
  3  5  1  0
  5  6  1  0
  6  7  1  0
  7  8  1  0
  7 15  1  0
  8  9  1  0
  9 10  2  0
 10 11  1  0
 11 12  2  0
 12 13  1  0
 13 14  2  0
 14  9  1  0
 15 16  1  0
 16  3  1  0
M  END
>  <Hit>  (261) 
Mpro-x0387_0

>  <Receptor>  (261) 
Mpro-x0305_0

>  <SCORE>  (261) 
-12.308400000000001

>  <SCORE.norm>  (261) 
-0.76927500000000004

>  <SCORE.heavy>  (261) 
16

>  <OrigSmiles>  (261) 
C#CC1(O)CCN(Cc2ncccn2)CC1

>  <SuCOS_Score>  (261) 
0.49529875121216493

>  <Max_SuCOS_Score>  (261) 
0

>  <Cum_SuCOS_Score>  (261) 
0

>  <TransFSScore_50nM>  (261) 
0.066728999999999997

>  <TransFSScore_1uM>  (261) 
0.034221000000000001

>  <TransFSScore_10nM>  (261) 
0.038797999999999999

>  <TransFSScore_200nM>  (261) 
0.078201999999999994

>  <TransFSScore>  (261) 
0.054487499999999994

>  <FeatureSteinScore>  (261) 
0.43651705457453494

>  <XCos_RefMols>  (261) 
x1392_0,x1382_0,x1385_0

>  <XCos_NumHits>  (261) 
3

>  <XCos_Score1>  (261) 
12.1348

>  <XCos_Score2>  (261) 
0.2057

>  <XCos_Score3>  (261) 
0.0169

$$$$
C#CC1(O)CCN(Cc2nccs2)CC1
     RDKit          3D

 15 16  0  0  0  0  0  0  0  0999 V2000
   10.5065   -5.2732   25.1905 C   0  0  0  0  0  0  0  0  0  0  0  0
    9.5702   -4.6546   25.6354 C   0  0  0  0  0  0  0  0  0  0  0  0
    8.4214   -3.8756   26.1720 C   0  0  0  0  0  0  0  0  0  0  0  0
    8.1633   -4.6078   27.2907 O   0  0  0  0  0  0  0  0  0  0  0  0
    7.2554   -3.8868   25.1954 C   0  0  0  0  0  0  0  0  0  0  0  0
    7.7888   -3.4490   23.8340 C   0  0  0  0  0  0  0  0  0  0  0  0
    8.8614   -2.4219   23.9148 N   0  0  0  0  0  0  0  0  0  0  0  0
    9.1137   -1.6500   22.6943 C   0  0  0  0  0  0  0  0  0  0  0  0
   10.4929   -1.0822   22.5825 C   0  0  0  0  0  0  0  0  0  0  0  0
   11.2965   -1.2392   21.5072 N   0  0  0  0  0  0  0  0  0  0  0  0
   12.5064   -0.6415   21.6685 C   0  0  0  0  0  0  0  0  0  0  0  0
   12.6786    0.0038   22.8879 C   0  0  0  0  0  0  0  0  0  0  0  0
   11.2643   -0.1898   23.7817 S   0  0  0  0  0  0  0  0  0  0  0  0
    8.7888   -1.5705   25.1249 C   0  0  0  0  0  0  0  0  0  0  0  0
    8.8618   -2.4197   26.4259 C   0  0  0  0  0  0  0  0  0  0  0  0
  1  2  3  0
  2  3  1  0
  3  4  1  0
  3  5  1  0
  5  6  1  0
  6  7  1  0
  7  8  1  0
  7 14  1  0
  8  9  1  0
  9 10  2  0
 10 11  1  0
 11 12  2  0
 12 13  1  0
 13  9  1  0
 14 15  1  0
 15  3  1  0
M  END
>  <Hit>  (262) 
Mpro-x0387_0

>  <Receptor>  (262) 
Mpro-x1249_0

>  <SCORE>  (262) 
-11.388299999999999

>  <SCORE.norm>  (262) 
-0.75922000000000001

>  <SCORE.heavy>  (262) 
15

>  <OrigSmiles>  (262) 
C#CC1(O)CCN(Cc2nccs2)CC1

>  <SuCOS_Score>  (262) 
0.48563208391850865

>  <Max_SuCOS_Score>  (262) 
0

>  <Cum_SuCOS_Score>  (262) 
0

>  <TransFSScore_50nM>  (262) 
0.0024559999999999998

>  <TransFSScore_1uM>  (262) 
0.072964000000000001

>  <TransFSScore_10nM>  (262) 
0.066164000000000001

>  <TransFSScore_200nM>  (262) 
0.045079000000000001

>  <TransFSScore>  (262) 
0.046665749999999999

>  <FeatureSteinScore>  (262) 
0.62308905787601332

>  <XCos_RefMols>  (262) 
x0708_0,x1382_0

>  <XCos_NumHits>  (262) 
2

>  <XCos_Score1>  (262) 
10.7574

>  <XCos_Score2>  (262) 
0.1823

>  <XCos_Score3>  (262) 
0.0169

$$$$
C#CC1(O)CCN(Cc2nccs2)CC1
     RDKit          3D

 15 16  0  0  0  0  0  0  0  0999 V2000
    9.5029   -0.5615   26.1628 C   0  0  0  0  0  0  0  0  0  0  0  0
    9.0736   -1.6010   25.7245 C   0  0  0  0  0  0  0  0  0  0  0  0
    8.5342   -2.8925   25.2025 C   0  0  0  0  0  0  0  0  0  0  0  0
    7.9357   -3.3916   26.3256 O   0  0  0  0  0  0  0  0  0  0  0  0
    9.6483   -3.7870   24.6672 C   0  0  0  0  0  0  0  0  0  0  0  0
   10.4813   -2.9509   23.7008 C   0  0  0  0  0  0  0  0  0  0  0  0
    9.6815   -1.9812   22.9072 N   0  0  0  0  0  0  0  0  0  0  0  0
   10.3077   -1.4745   21.6826 C   0  0  0  0  0  0  0  0  0  0  0  0
   11.7275   -1.0346   21.8393 C   0  0  0  0  0  0  0  0  0  0  0  0
   12.7656   -1.6359   21.2181 N   0  0  0  0  0  0  0  0  0  0  0  0
   13.9499   -1.0396   21.5192 C   0  0  0  0  0  0  0  0  0  0  0  0
   13.8627    0.0438   22.3855 C   0  0  0  0  0  0  0  0  0  0  0  0
   12.2435    0.2579   22.7858 S   0  0  0  0  0  0  0  0  0  0  0  0
    8.2735   -2.3916   22.7026 C   0  0  0  0  0  0  0  0  0  0  0  0
    7.5414   -2.6068   24.0586 C   0  0  0  0  0  0  0  0  0  0  0  0
  1  2  3  0
  2  3  1  0
  3  4  1  0
  3  5  1  0
  5  6  1  0
  6  7  1  0
  7  8  1  0
  7 14  1  0
  8  9  1  0
  9 10  2  0
 10 11  1  0
 11 12  2  0
 12 13  1  0
 13  9  1  0
 14 15  1  0
 15  3  1  0
M  END
>  <Hit>  (263) 
Mpro-x0387_0

>  <Receptor>  (263) 
Mpro-x0874_0

>  <SCORE>  (263) 
-12.162699999999999

>  <SCORE.norm>  (263) 
-0.81084500000000004

>  <SCORE.heavy>  (263) 
15

>  <OrigSmiles>  (263) 
C#CC1(O)CCN(Cc2nccs2)CC1

>  <SuCOS_Score>  (263) 
0.32159205141364039

>  <Max_SuCOS_Score>  (263) 
0

>  <Cum_SuCOS_Score>  (263) 
0

>  <TransFSScore_50nM>  (263) 
0.0065859999999999998

>  <TransFSScore_1uM>  (263) 
0.035550999999999999

>  <TransFSScore_10nM>  (263) 
0.057909000000000002

>  <TransFSScore_200nM>  (263) 
0.048057999999999997

>  <TransFSScore>  (263) 
0.037025999999999996

>  <FeatureSteinScore>  (263) 
0.29852335846128036

>  <XCos_RefMols>  (263) 
x1392_0,x0395_0

>  <XCos_NumHits>  (263) 
2

>  <XCos_Score1>  (263) 
9.0590

>  <XCos_Score2>  (263) 
0.1024

>  <XCos_Score3>  (263) 
0.0113

$$$$
C#CC1(O)CCN(Cc2nccs2)CC1
     RDKit          3D

 15 16  0  0  0  0  0  0  0  0999 V2000
    9.3583   -0.7941   26.1963 C   0  0  0  0  0  0  0  0  0  0  0  0
    9.0262   -1.8683   25.7576 C   0  0  0  0  0  0  0  0  0  0  0  0
    8.6118   -3.2053   25.2356 C   0  0  0  0  0  0  0  0  0  0  0  0
    8.0095   -3.7357   26.3421 O   0  0  0  0  0  0  0  0  0  0  0  0
    9.8137   -4.0153   24.7590 C   0  0  0  0  0  0  0  0  0  0  0  0
   10.6167   -3.1283   23.8128 C   0  0  0  0  0  0  0  0  0  0  0  0
    9.7758   -2.2355   22.9728 N   0  0  0  0  0  0  0  0  0  0  0  0
   10.4092   -1.6966   21.7658 C   0  0  0  0  0  0  0  0  0  0  0  0
   11.7474   -1.0686   21.9862 C   0  0  0  0  0  0  0  0  0  0  0  0
   12.8612   -1.4357   21.3155 N   0  0  0  0  0  0  0  0  0  0  0  0
   13.9438   -0.7053   21.6936 C   0  0  0  0  0  0  0  0  0  0  0  0
   13.6988    0.2513   22.6717 C   0  0  0  0  0  0  0  0  0  0  0  0
   12.0678    0.1752   23.0739 S   0  0  0  0  0  0  0  0  0  0  0  0
    8.4139   -2.7589   22.7196 C   0  0  0  0  0  0  0  0  0  0  0  0
    7.6467   -3.0141   24.0490 C   0  0  0  0  0  0  0  0  0  0  0  0
  1  2  3  0
  2  3  1  0
  3  4  1  0
  3  5  1  0
  5  6  1  0
  6  7  1  0
  7  8  1  0
  7 14  1  0
  8  9  1  0
  9 10  2  0
 10 11  1  0
 11 12  2  0
 12 13  1  0
 13  9  1  0
 14 15  1  0
 15  3  1  0
M  END
>  <Hit>  (264) 
Mpro-x0387_0

>  <Receptor>  (264) 
Mpro-x0874_0

>  <SCORE>  (264) 
-12.2898

>  <SCORE.norm>  (264) 
-0.81931799999999999

>  <SCORE.heavy>  (264) 
15

>  <OrigSmiles>  (264) 
C#CC1(O)CCN(Cc2nccs2)CC1

>  <SuCOS_Score>  (264) 
0.35484128147889088

>  <Max_SuCOS_Score>  (264) 
0

>  <Cum_SuCOS_Score>  (264) 
0

>  <TransFSScore_50nM>  (264) 
0.0073829999999999998

>  <TransFSScore_1uM>  (264) 
0.049140000000000003

>  <TransFSScore_10nM>  (264) 
0.051777999999999998

>  <TransFSScore_200nM>  (264) 
0.072301000000000004

>  <TransFSScore>  (264) 
0.045150500000000003

>  <FeatureSteinScore>  (264) 
0.29904043073541242

>  <XCos_RefMols>  (264) 
x1392_0,x0395_0

>  <XCos_NumHits>  (264) 
2

>  <XCos_Score1>  (264) 
9.0526

>  <XCos_Score2>  (264) 
0.1023

>  <XCos_Score3>  (264) 
0.0113

$$$$
C#CC1(O)CCN(Cc2nccs2)CC1
     RDKit          3D

 15 16  0  0  0  0  0  0  0  0999 V2000
    9.0183   -1.7836   27.1298 C   0  0  0  0  0  0  0  0  0  0  0  0
    8.7894   -2.9112   26.7647 C   0  0  0  0  0  0  0  0  0  0  0  0
    8.5276   -4.3041   26.3108 C   0  0  0  0  0  0  0  0  0  0  0  0
    8.3141   -4.8924   27.5201 O   0  0  0  0  0  0  0  0  0  0  0  0
    9.7418   -4.8791   25.5976 C   0  0  0  0  0  0  0  0  0  0  0  0
   10.1561   -3.8849   24.5162 C   0  0  0  0  0  0  0  0  0  0  0  0
    9.0101   -3.1828   23.8794 N   0  0  0  0  0  0  0  0  0  0  0  0
    9.2722   -2.5613   22.5778 C   0  0  0  0  0  0  0  0  0  0  0  0
   10.4046   -1.5842   22.5636 C   0  0  0  0  0  0  0  0  0  0  0  0
   11.1612   -1.3108   21.4775 N   0  0  0  0  0  0  0  0  0  0  0  0
   12.1375   -0.4016   21.7375 C   0  0  0  0  0  0  0  0  0  0  0  0
   12.1671    0.0616   23.0480 C   0  0  0  0  0  0  0  0  0  0  0  0
   10.9274   -0.7005   23.8959 S   0  0  0  0  0  0  0  0  0  0  0  0
    7.7456   -3.9543   23.9002 C   0  0  0  0  0  0  0  0  0  0  0  0
    7.3196   -4.3136   25.3523 C   0  0  0  0  0  0  0  0  0  0  0  0
  1  2  3  0
  2  3  1  0
  3  4  1  0
  3  5  1  0
  5  6  1  0
  6  7  1  0
  7  8  1  0
  7 14  1  0
  8  9  1  0
  9 10  2  0
 10 11  1  0
 11 12  2  0
 12 13  1  0
 13  9  1  0
 14 15  1  0
 15  3  1  0
M  END
>  <Hit>  (265) 
Mpro-x0387_0

>  <Receptor>  (265) 
Mpro-x1249_0

>  <SCORE>  (265) 
-12.3926

>  <SCORE.norm>  (265) 
-0.82617200000000002

>  <SCORE.heavy>  (265) 
15

>  <OrigSmiles>  (265) 
C#CC1(O)CCN(Cc2nccs2)CC1

>  <SuCOS_Score>  (265) 
0.50670419958082502

>  <Max_SuCOS_Score>  (265) 
0

>  <Cum_SuCOS_Score>  (265) 
0

>  <TransFSScore_50nM>  (265) 
0.0026619999999999999

>  <TransFSScore_1uM>  (265) 
0.038345999999999998

>  <TransFSScore_10nM>  (265) 
0.046073999999999997

>  <TransFSScore_200nM>  (265) 
0.032627000000000003

>  <TransFSScore>  (265) 
0.029927249999999999

>  <FeatureSteinScore>  (265) 
0.4738887940370739

>  <XCos_RefMols>  (265) 
x1392_0,x1382_0

>  <XCos_NumHits>  (265) 
2

>  <XCos_Score1>  (265) 
10.9918

>  <XCos_Score2>  (265) 
0.0000

>  <XCos_Score3>  (265) 
0.0000

$$$$
C#CC1(O)CCN(Cc2nccs2)CC1
     RDKit          3D

 15 16  0  0  0  0  0  0  0  0999 V2000
    9.4261   -0.6070   26.1985 C   0  0  0  0  0  0  0  0  0  0  0  0
    9.0204   -1.6792   25.8208 C   0  0  0  0  0  0  0  0  0  0  0  0
    8.5087   -2.9961   25.3354 C   0  0  0  0  0  0  0  0  0  0  0  0
    7.8202   -3.4238   26.4361 O   0  0  0  0  0  0  0  0  0  0  0  0
    9.6510   -3.9278   24.9415 C   0  0  0  0  0  0  0  0  0  0  0  0
   10.5650   -3.1559   23.9951 C   0  0  0  0  0  0  0  0  0  0  0  0
    9.8392   -2.2301   23.0862 N   0  0  0  0  0  0  0  0  0  0  0  0
   10.5632   -1.8011   21.8862 C   0  0  0  0  0  0  0  0  0  0  0  0
   11.8285   -1.0510   22.1511 C   0  0  0  0  0  0  0  0  0  0  0  0
   11.9282   -0.0585   23.0622 N   0  0  0  0  0  0  0  0  0  0  0  0
   13.1864    0.4541   23.1169 C   0  0  0  0  0  0  0  0  0  0  0  0
   14.1000   -0.1284   22.2464 C   0  0  0  0  0  0  0  0  0  0  0  0
   13.2989   -1.3264   21.3799 S   0  0  0  0  0  0  0  0  0  0  0  0
    8.4467   -2.6431   22.7977 C   0  0  0  0  0  0  0  0  0  0  0  0
    7.6101   -2.7727   24.1031 C   0  0  0  0  0  0  0  0  0  0  0  0
  1  2  3  0
  2  3  1  0
  3  4  1  0
  3  5  1  0
  5  6  1  0
  6  7  1  0
  7  8  1  0
  7 14  1  0
  8  9  1  0
  9 10  2  0
 10 11  1  0
 11 12  2  0
 12 13  1  0
 13  9  1  0
 14 15  1  0
 15  3  1  0
M  END
>  <Hit>  (266) 
Mpro-x0387_0

>  <Receptor>  (266) 
Mpro-x0874_0

>  <SCORE>  (266) 
-12.533099999999999

>  <SCORE.norm>  (266) 
-0.83554200000000001

>  <SCORE.heavy>  (266) 
15

>  <OrigSmiles>  (266) 
C#CC1(O)CCN(Cc2nccs2)CC1

>  <SuCOS_Score>  (266) 
0.36187554104692349

>  <Max_SuCOS_Score>  (266) 
0

>  <Cum_SuCOS_Score>  (266) 
0

>  <TransFSScore_50nM>  (266) 
0.0037859999999999999

>  <TransFSScore_1uM>  (266) 
0.105042

>  <TransFSScore_10nM>  (266) 
0.081637000000000001

>  <TransFSScore_200nM>  (266) 
0.032149999999999998

>  <TransFSScore>  (266) 
0.055653750000000002

>  <FeatureSteinScore>  (266) 
0.26099278071130227

>  <XCos_RefMols>  (266) 
x0967_0,x0874_0

>  <XCos_NumHits>  (266) 
2

>  <XCos_Score1>  (266) 
9.3498

>  <XCos_Score2>  (266) 
0.0528

>  <XCos_Score3>  (266) 
0.0056

$$$$
C#CC1(O)CCN(Cc2nccs2)CC1
     RDKit          3D

 15 16  0  0  0  0  0  0  0  0999 V2000
    8.8427   -1.8590   27.1267 C   0  0  0  0  0  0  0  0  0  0  0  0
    8.6836   -3.0080   26.7922 C   0  0  0  0  0  0  0  0  0  0  0  0
    8.4676   -4.4234   26.3866 C   0  0  0  0  0  0  0  0  0  0  0  0
    8.2382   -4.9703   27.6123 O   0  0  0  0  0  0  0  0  0  0  0  0
    9.7131   -4.9941   25.7260 C   0  0  0  0  0  0  0  0  0  0  0  0
   10.1301   -4.0319   24.6170 C   0  0  0  0  0  0  0  0  0  0  0  0
    8.9835   -3.3841   23.9258 N   0  0  0  0  0  0  0  0  0  0  0  0
    9.2630   -2.8065   22.6077 C   0  0  0  0  0  0  0  0  0  0  0  0
   10.3305   -1.7588   22.5933 C   0  0  0  0  0  0  0  0  0  0  0  0
   11.0423   -1.4116   21.4981 N   0  0  0  0  0  0  0  0  0  0  0  0
   11.9648   -0.4483   21.7595 C   0  0  0  0  0  0  0  0  0  0  0  0
   11.9958   -0.0155   23.0803 C   0  0  0  0  0  0  0  0  0  0  0  0
   10.8275   -0.8755   23.9358 S   0  0  0  0  0  0  0  0  0  0  0  0
    7.7383   -4.1862   23.9460 C   0  0  0  0  0  0  0  0  0  0  0  0
    7.2847   -4.5004   25.4002 C   0  0  0  0  0  0  0  0  0  0  0  0
  1  2  3  0
  2  3  1  0
  3  4  1  0
  3  5  1  0
  5  6  1  0
  6  7  1  0
  7  8  1  0
  7 14  1  0
  8  9  1  0
  9 10  2  0
 10 11  1  0
 11 12  2  0
 12 13  1  0
 13  9  1  0
 14 15  1  0
 15  3  1  0
M  END
>  <Hit>  (267) 
Mpro-x0387_0

>  <Receptor>  (267) 
Mpro-x1249_0

>  <SCORE>  (267) 
-12.6007

>  <SCORE.norm>  (267) 
-0.84004400000000001

>  <SCORE.heavy>  (267) 
15

>  <OrigSmiles>  (267) 
C#CC1(O)CCN(Cc2nccs2)CC1

>  <SuCOS_Score>  (267) 
0.47928377025636415

>  <Max_SuCOS_Score>  (267) 
0

>  <Cum_SuCOS_Score>  (267) 
0

>  <TransFSScore_50nM>  (267) 
0.002735

>  <TransFSScore_1uM>  (267) 
0.039097

>  <TransFSScore_10nM>  (267) 
0.050859000000000001

>  <TransFSScore_200nM>  (267) 
0.027954

>  <TransFSScore>  (267) 
0.030161250000000001

>  <FeatureSteinScore>  (267) 
0.41382701676898348

>  <XCos_RefMols>  (267) 
x1392_0,x1382_0

>  <XCos_NumHits>  (267) 
2

>  <XCos_Score1>  (267) 
10.9068

>  <XCos_Score2>  (267) 
0.0000

>  <XCos_Score3>  (267) 
0.0000

$$$$
C#CC1(O)CCN(Cc2nccs2)CC1
     RDKit          3D

 15 16  0  0  0  0  0  0  0  0999 V2000
    8.7790   -2.2310   27.2058 C   0  0  0  0  0  0  0  0  0  0  0  0
    8.7892   -3.3838   26.8478 C   0  0  0  0  0  0  0  0  0  0  0  0
    8.8229   -4.8047   26.4066 C   0  0  0  0  0  0  0  0  0  0  0  0
    8.7211   -5.4136   27.6202 O   0  0  0  0  0  0  0  0  0  0  0  0
   10.1368   -5.1252   25.7106 C   0  0  0  0  0  0  0  0  0  0  0  0
   10.3509   -4.0768   24.6222 C   0  0  0  0  0  0  0  0  0  0  0  0
    9.0924   -3.6298   23.9676 N   0  0  0  0  0  0  0  0  0  0  0  0
    9.2362   -2.9792   22.6617 C   0  0  0  0  0  0  0  0  0  0  0  0
   10.2230   -1.8558   22.6235 C   0  0  0  0  0  0  0  0  0  0  0  0
   10.8702   -1.4480   21.5092 N   0  0  0  0  0  0  0  0  0  0  0  0
   11.7279   -0.4217   21.7505 C   0  0  0  0  0  0  0  0  0  0  0  0
   11.7718    0.0010   23.0742 C   0  0  0  0  0  0  0  0  0  0  0  0
   10.6990   -0.9498   23.9584 S   0  0  0  0  0  0  0  0  0  0  0  0
    8.0124   -4.6435   23.9855 C   0  0  0  0  0  0  0  0  0  0  0  0
    7.6530   -5.0696   25.4375 C   0  0  0  0  0  0  0  0  0  0  0  0
  1  2  3  0
  2  3  1  0
  3  4  1  0
  3  5  1  0
  5  6  1  0
  6  7  1  0
  7  8  1  0
  7 14  1  0
  8  9  1  0
  9 10  2  0
 10 11  1  0
 11 12  2  0
 12 13  1  0
 13  9  1  0
 14 15  1  0
 15  3  1  0
M  END
>  <Hit>  (268) 
Mpro-x0387_0

>  <Receptor>  (268) 
Mpro-x1249_0

>  <SCORE>  (268) 
-12.953900000000001

>  <SCORE.norm>  (268) 
-0.863591

>  <SCORE.heavy>  (268) 
15

>  <OrigSmiles>  (268) 
C#CC1(O)CCN(Cc2nccs2)CC1

>  <SuCOS_Score>  (268) 
0.47945075082824001

>  <Max_SuCOS_Score>  (268) 
0

>  <Cum_SuCOS_Score>  (268) 
0

>  <TransFSScore_50nM>  (268) 
0.002604

>  <TransFSScore_1uM>  (268) 
0.040107999999999998

>  <TransFSScore_10nM>  (268) 
0.035115

>  <TransFSScore_200nM>  (268) 
0.031119000000000001

>  <TransFSScore>  (268) 
0.027236500000000004

>  <FeatureSteinScore>  (268) 
0.35513542615601879

>  <XCos_RefMols>  (268) 
x1392_0,x1382_0

>  <XCos_NumHits>  (268) 
2

>  <XCos_Score1>  (268) 
10.5563

>  <XCos_Score2>  (268) 
0.0000

>  <XCos_Score3>  (268) 
0.0000

$$$$
C#CC1(O)CCN(Cc2nccs2)CC1
     RDKit          3D

 15 16  0  0  0  0  0  0  0  0999 V2000
    8.6944   -2.2519   27.1617 C   0  0  0  0  0  0  0  0  0  0  0  0
    8.7418   -3.3961   26.7798 C   0  0  0  0  0  0  0  0  0  0  0  0
    8.8094   -4.8121   26.3270 C   0  0  0  0  0  0  0  0  0  0  0  0
    8.7169   -5.4333   27.5351 O   0  0  0  0  0  0  0  0  0  0  0  0
   10.1328   -5.0968   25.6335 C   0  0  0  0  0  0  0  0  0  0  0  0
   10.3270   -4.0348   24.5546 C   0  0  0  0  0  0  0  0  0  0  0  0
    9.0612   -3.6110   23.8989 N   0  0  0  0  0  0  0  0  0  0  0  0
    9.1949   -2.9464   22.5990 C   0  0  0  0  0  0  0  0  0  0  0  0
   10.1789   -1.8204   22.5662 C   0  0  0  0  0  0  0  0  0  0  0  0
   10.8292   -1.4093   21.4549 N   0  0  0  0  0  0  0  0  0  0  0  0
   11.6835   -0.3811   21.7009 C   0  0  0  0  0  0  0  0  0  0  0  0
   11.7213    0.0397   23.0255 C   0  0  0  0  0  0  0  0  0  0  0  0
   10.6477   -0.9151   23.9041 S   0  0  0  0  0  0  0  0  0  0  0  0
    8.0044   -4.6491   23.9041 C   0  0  0  0  0  0  0  0  0  0  0  0
    7.6494   -5.0954   25.3512 C   0  0  0  0  0  0  0  0  0  0  0  0
  1  2  3  0
  2  3  1  0
  3  4  1  0
  3  5  1  0
  5  6  1  0
  6  7  1  0
  7  8  1  0
  7 14  1  0
  8  9  1  0
  9 10  2  0
 10 11  1  0
 11 12  2  0
 12 13  1  0
 13  9  1  0
 14 15  1  0
 15  3  1  0
M  END
>  <Hit>  (269) 
Mpro-x0387_0

>  <Receptor>  (269) 
Mpro-x1249_0

>  <SCORE>  (269) 
-12.9642

>  <SCORE.norm>  (269) 
-0.86428000000000005

>  <SCORE.heavy>  (269) 
15

>  <OrigSmiles>  (269) 
C#CC1(O)CCN(Cc2nccs2)CC1

>  <SuCOS_Score>  (269) 
0.4651180063487208

>  <Max_SuCOS_Score>  (269) 
0

>  <Cum_SuCOS_Score>  (269) 
0

>  <TransFSScore_50nM>  (269) 
0.0028149999999999998

>  <TransFSScore_1uM>  (269) 
0.037144000000000003

>  <TransFSScore_10nM>  (269) 
0.036628000000000001

>  <TransFSScore_200nM>  (269) 
0.032988999999999997

>  <TransFSScore>  (269) 
0.027394000000000002

>  <FeatureSteinScore>  (269) 
0.36578873008071394

>  <XCos_RefMols>  (269) 
x1392_0,x1382_0

>  <XCos_NumHits>  (269) 
2

>  <XCos_Score1>  (269) 
10.6289

>  <XCos_Score2>  (269) 
0.0000

>  <XCos_Score3>  (269) 
0.0000

$$$$
C#CC1(O)CCN(Cc2nccs2)CC1
     RDKit          3D

 15 16  0  0  0  0  0  0  0  0999 V2000
    9.7864   -3.4073   28.3409 C   0  0  0  0  0  0  0  0  0  0  0  0
    9.3795   -4.2903   27.6257 C   0  0  0  0  0  0  0  0  0  0  0  0
    8.8887   -5.3980   26.7517 C   0  0  0  0  0  0  0  0  0  0  0  0
    8.3689   -6.2493   27.6864 O   0  0  0  0  0  0  0  0  0  0  0  0
   10.0251   -6.0155   25.9423 C   0  0  0  0  0  0  0  0  0  0  0  0
   10.7674   -4.8752   25.2527 C   0  0  0  0  0  0  0  0  0  0  0  0
    9.8814   -3.7665   24.8105 N   0  0  0  0  0  0  0  0  0  0  0  0
   10.4239   -2.8757   23.7807 C   0  0  0  0  0  0  0  0  0  0  0  0
   11.1344   -1.6697   24.3048 C   0  0  0  0  0  0  0  0  0  0  0  0
   11.0587   -1.2617   25.5904 N   0  0  0  0  0  0  0  0  0  0  0  0
   11.8034   -0.1459   25.8121 C   0  0  0  0  0  0  0  0  0  0  0  0
   12.4790    0.3441   24.7007 C   0  0  0  0  0  0  0  0  0  0  0  0
   12.1276   -0.6586   23.3972 S   0  0  0  0  0  0  0  0  0  0  0  0
    8.4902   -4.1878   24.5280 C   0  0  0  0  0  0  0  0  0  0  0  0
    7.8319   -4.8477   25.7738 C   0  0  0  0  0  0  0  0  0  0  0  0
  1  2  3  0
  2  3  1  0
  3  4  1  0
  3  5  1  0
  5  6  1  0
  6  7  1  0
  7  8  1  0
  7 14  1  0
  8  9  1  0
  9 10  2  0
 10 11  1  0
 11 12  2  0
 12 13  1  0
 13  9  1  0
 14 15  1  0
 15  3  1  0
M  END
>  <Hit>  (270) 
Mpro-x0387_0

>  <Receptor>  (270) 
Mpro-x0387_0

>  <SCORE>  (270) 
-13.342499999999999

>  <SCORE.norm>  (270) 
-0.88950099999999999

>  <SCORE.heavy>  (270) 
15

>  <OrigSmiles>  (270) 
C#CC1(O)CCN(Cc2nccs2)CC1

>  <SuCOS_Score>  (270) 
0.42845157917864968

>  <Max_SuCOS_Score>  (270) 
0

>  <Cum_SuCOS_Score>  (270) 
0

>  <TransFSScore_50nM>  (270) 
0.00132

>  <TransFSScore_1uM>  (270) 
0.024635000000000001

>  <TransFSScore_10nM>  (270) 
0.013663

>  <TransFSScore_200nM>  (270) 
0.052141

>  <TransFSScore>  (270) 
0.022939750000000002

>  <FeatureSteinScore>  (270) 
0.14524391372723647

>  <XCos_RefMols>  (270) 


>  <XCos_NumHits>  (270) 
0

>  <XCos_Score1>  (270) 
7.7146

>  <XCos_Score2>  (270) 
0.0000

>  <XCos_Score3>  (270) 
0.0000

$$$$
C#CC1(O)CCN(Cc2nccs2)CC1
     RDKit          3D

 15 16  0  0  0  0  0  0  0  0999 V2000
    9.4381   -3.0210   28.0057 C   0  0  0  0  0  0  0  0  0  0  0  0
    9.3188   -4.0439   27.3762 C   0  0  0  0  0  0  0  0  0  0  0  0
    9.1502   -5.3037   26.5912 C   0  0  0  0  0  0  0  0  0  0  0  0
    8.6687   -6.1434   27.5564 O   0  0  0  0  0  0  0  0  0  0  0  0
   10.4745   -5.7706   25.9943 C   0  0  0  0  0  0  0  0  0  0  0  0
   11.0898   -4.5827   25.2614 C   0  0  0  0  0  0  0  0  0  0  0  0
   10.0894   -3.7096   24.5931 N   0  0  0  0  0  0  0  0  0  0  0  0
   10.5987   -2.8362   23.5319 C   0  0  0  0  0  0  0  0  0  0  0  0
   11.3042   -1.6096   24.0130 C   0  0  0  0  0  0  0  0  0  0  0  0
   11.2309   -1.1597   25.2847 N   0  0  0  0  0  0  0  0  0  0  0  0
   11.9699   -0.0330   25.4665 C   0  0  0  0  0  0  0  0  0  0  0  0
   12.6386    0.4238   24.3369 C   0  0  0  0  0  0  0  0  0  0  0  0
   12.2882   -0.6234   23.0687 S   0  0  0  0  0  0  0  0  0  0  0  0
    8.8437   -4.4116   24.2082 C   0  0  0  0  0  0  0  0  0  0  0  0
    8.1523   -5.0602   25.4420 C   0  0  0  0  0  0  0  0  0  0  0  0
  1  2  3  0
  2  3  1  0
  3  4  1  0
  3  5  1  0
  5  6  1  0
  6  7  1  0
  7  8  1  0
  7 14  1  0
  8  9  1  0
  9 10  2  0
 10 11  1  0
 11 12  2  0
 12 13  1  0
 13  9  1  0
 14 15  1  0
 15  3  1  0
M  END
>  <Hit>  (271) 
Mpro-x0387_0

>  <Receptor>  (271) 
Mpro-x0387_0

>  <SCORE>  (271) 
-13.3531

>  <SCORE.norm>  (271) 
-0.89020500000000002

>  <SCORE.heavy>  (271) 
15

>  <OrigSmiles>  (271) 
C#CC1(O)CCN(Cc2nccs2)CC1

>  <SuCOS_Score>  (271) 
0.45453483267801642

>  <Max_SuCOS_Score>  (271) 
0

>  <Cum_SuCOS_Score>  (271) 
0

>  <TransFSScore_50nM>  (271) 
0.0010859999999999999

>  <TransFSScore_1uM>  (271) 
0.032976999999999999

>  <TransFSScore_10nM>  (271) 
0.0084340000000000005

>  <TransFSScore_200nM>  (271) 
0.068506999999999998

>  <TransFSScore>  (271) 
0.027750999999999998

>  <FeatureSteinScore>  (271) 
0.16684287077668256

>  <XCos_RefMols>  (271) 
x1386_0

>  <XCos_NumHits>  (271) 
1

>  <XCos_Score1>  (271) 
8.0605

>  <XCos_Score2>  (271) 
0.0000

>  <XCos_Score3>  (271) 
0.0000

$$$$
C#CC1(O)CCN(Cc2ncn[nH]2)CC1
     RDKit          3D

 15 16  0  0  0  0  0  0  0  0999 V2000
   10.7522   -5.5831   25.4527 C   0  0  0  0  0  0  0  0  0  0  0  0
    9.7580   -5.0422   25.8724 C   0  0  0  0  0  0  0  0  0  0  0  0
    8.5411   -4.3746   26.4089 C   0  0  0  0  0  0  0  0  0  0  0  0
    8.3611   -5.1187   27.5350 O   0  0  0  0  0  0  0  0  0  0  0  0
    7.3771   -4.5082   25.4386 C   0  0  0  0  0  0  0  0  0  0  0  0
    7.8590   -4.0321   24.0708 C   0  0  0  0  0  0  0  0  0  0  0  0
    8.8268   -2.9047   24.1375 N   0  0  0  0  0  0  0  0  0  0  0  0
    8.9943   -2.1220   22.9093 C   0  0  0  0  0  0  0  0  0  0  0  0
   10.2502   -1.3127   22.8477 C   0  0  0  0  0  0  0  0  0  0  0  0
   10.6603   -0.4763   23.8271 N   0  0  0  0  0  0  0  0  0  0  0  0
   11.8014    0.0319   23.3118 C   0  0  0  0  0  0  0  0  0  0  0  0
   12.0617   -0.4676   22.0912 N   0  0  0  0  0  0  0  0  0  0  0  0
   11.0909   -1.3092   21.7988 N   0  0  0  0  0  0  0  0  0  0  0  0
    8.6768   -2.0541   25.3409 C   0  0  0  0  0  0  0  0  0  0  0  0
    8.8381   -2.8805   26.6486 C   0  0  0  0  0  0  0  0  0  0  0  0
  1  2  3  0
  2  3  1  0
  3  4  1  0
  3  5  1  0
  5  6  1  0
  6  7  1  0
  7  8  1  0
  7 14  1  0
  8  9  1  0
  9 10  2  0
 10 11  1  0
 11 12  2  0
 12 13  1  0
 13  9  1  0
 14 15  1  0
 15  3  1  0
M  END
>  <Hit>  (272) 
Mpro-x0387_0

>  <Receptor>  (272) 
Mpro-x1249_0

>  <SCORE>  (272) 
-10.3156

>  <SCORE.norm>  (272) 
-0.68770900000000001

>  <SCORE.heavy>  (272) 
15

>  <OrigSmiles>  (272) 
C#CC1(O)CCN(Cc2ncn[nH]2)CC1

>  <SuCOS_Score>  (272) 
0.50012493382730883

>  <Max_SuCOS_Score>  (272) 
0

>  <Cum_SuCOS_Score>  (272) 
0

>  <TransFSScore_50nM>  (272) 
0.001735

>  <TransFSScore_1uM>  (272) 
0.037198000000000002

>  <TransFSScore_10nM>  (272) 
0.0040489999999999996

>  <TransFSScore_200nM>  (272) 
0.027118

>  <TransFSScore>  (272) 
0.017524999999999999

>  <FeatureSteinScore>  (272) 
0.33983381945824503

>  <XCos_RefMols>  (272) 
x0708_0,x1382_0

>  <XCos_NumHits>  (272) 
2

>  <XCos_Score1>  (272) 
10.0301

>  <XCos_Score2>  (272) 
0.1133

>  <XCos_Score3>  (272) 
0.0113

$$$$
C#CC1(O)CCN(Cc2ncn[nH]2)CC1
     RDKit          3D

 15 16  0  0  0  0  0  0  0  0999 V2000
   10.7142   -5.5402   25.5576 C   0  0  0  0  0  0  0  0  0  0  0  0
    9.7167   -5.0021   25.9731 C   0  0  0  0  0  0  0  0  0  0  0  0
    8.4987   -4.3226   26.4921 C   0  0  0  0  0  0  0  0  0  0  0  0
    8.3186   -5.0388   27.6362 O   0  0  0  0  0  0  0  0  0  0  0  0
    7.3356   -4.4814   25.5246 C   0  0  0  0  0  0  0  0  0  0  0  0
    7.8180   -4.0389   24.1457 C   0  0  0  0  0  0  0  0  0  0  0  0
    8.7847   -2.9093   24.1851 N   0  0  0  0  0  0  0  0  0  0  0  0
    8.9524   -2.1570   22.9381 C   0  0  0  0  0  0  0  0  0  0  0  0
   10.2030   -1.3409   22.8612 C   0  0  0  0  0  0  0  0  0  0  0  0
   10.6332   -0.5209   23.8458 N   0  0  0  0  0  0  0  0  0  0  0  0
   11.7593    0.0021   23.3125 C   0  0  0  0  0  0  0  0  0  0  0  0
   11.9920   -0.4735   22.0769 N   0  0  0  0  0  0  0  0  0  0  0  0
   11.0179   -1.3141   21.7925 N   0  0  0  0  0  0  0  0  0  0  0  0
    8.6330   -2.0292   25.3670 C   0  0  0  0  0  0  0  0  0  0  0  0
    8.7941   -2.8228   26.6949 C   0  0  0  0  0  0  0  0  0  0  0  0
  1  2  3  0
  2  3  1  0
  3  4  1  0
  3  5  1  0
  5  6  1  0
  6  7  1  0
  7  8  1  0
  7 14  1  0
  8  9  1  0
  9 10  2  0
 10 11  1  0
 11 12  2  0
 12 13  1  0
 13  9  1  0
 14 15  1  0
 15  3  1  0
M  END
>  <Hit>  (273) 
Mpro-x0387_0

>  <Receptor>  (273) 
Mpro-x1249_0

>  <SCORE>  (273) 
-10.4893

>  <SCORE.norm>  (273) 
-0.69928900000000005

>  <SCORE.heavy>  (273) 
15

>  <OrigSmiles>  (273) 
C#CC1(O)CCN(Cc2ncn[nH]2)CC1

>  <SuCOS_Score>  (273) 
0.49490975491180478

>  <Max_SuCOS_Score>  (273) 
0

>  <Cum_SuCOS_Score>  (273) 
0

>  <TransFSScore_50nM>  (273) 
0.0016299999999999999

>  <TransFSScore_1uM>  (273) 
0.035506000000000003

>  <TransFSScore_10nM>  (273) 
0.0037729999999999999

>  <TransFSScore_200nM>  (273) 
0.024771000000000001

>  <TransFSScore>  (273) 
0.016420000000000001

>  <FeatureSteinScore>  (273) 
0.32904155834474963

>  <XCos_RefMols>  (273) 
x0708_0,x1382_0

>  <XCos_NumHits>  (273) 
2

>  <XCos_Score1>  (273) 
10.0104

>  <XCos_Score2>  (273) 
0.0566

>  <XCos_Score3>  (273) 
0.0056

$$$$
C#CC1(O)CCN(Cc2ncn[nH]2)CC1
     RDKit          3D

 15 16  0  0  0  0  0  0  0  0999 V2000
   10.5744   -5.6096   25.5097 C   0  0  0  0  0  0  0  0  0  0  0  0
    9.5755   -5.0250   25.8524 C   0  0  0  0  0  0  0  0  0  0  0  0
    8.3425   -4.2959   26.2558 C   0  0  0  0  0  0  0  0  0  0  0  0
    8.0760   -4.9446   27.4231 O   0  0  0  0  0  0  0  0  0  0  0  0
    7.2387   -4.4865   25.2265 C   0  0  0  0  0  0  0  0  0  0  0  0
    7.8156   -4.1293   23.8592 C   0  0  0  0  0  0  0  0  0  0  0  0
    8.8021   -3.0171   23.8990 N   0  0  0  0  0  0  0  0  0  0  0  0
    9.0635   -2.3378   22.6265 C   0  0  0  0  0  0  0  0  0  0  0  0
   10.3802   -1.6333   22.5503 C   0  0  0  0  0  0  0  0  0  0  0  0
   10.9563   -0.9915   23.5910 N   0  0  0  0  0  0  0  0  0  0  0  0
   12.0890   -0.5053   23.0372 C   0  0  0  0  0  0  0  0  0  0  0  0
   12.1877   -0.8332   21.7372 N   0  0  0  0  0  0  0  0  0  0  0  0
   11.1180   -1.5390   21.4306 N   0  0  0  0  0  0  0  0  0  0  0  0
    8.5962   -2.0707   25.0198 C   0  0  0  0  0  0  0  0  0  0  0  0
    8.6571   -2.7928   26.3960 C   0  0  0  0  0  0  0  0  0  0  0  0
  1  2  3  0
  2  3  1  0
  3  4  1  0
  3  5  1  0
  5  6  1  0
  6  7  1  0
  7  8  1  0
  7 14  1  0
  8  9  1  0
  9 10  2  0
 10 11  1  0
 11 12  2  0
 12 13  1  0
 13  9  1  0
 14 15  1  0
 15  3  1  0
M  END
>  <Hit>  (274) 
Mpro-x0387_0

>  <Receptor>  (274) 
Mpro-x0874_0

>  <SCORE>  (274) 
-10.5143

>  <SCORE.norm>  (274) 
-0.70095499999999999

>  <SCORE.heavy>  (274) 
15

>  <OrigSmiles>  (274) 
C#CC1(O)CCN(Cc2ncn[nH]2)CC1

>  <SuCOS_Score>  (274) 
0.45348475990289028

>  <Max_SuCOS_Score>  (274) 
0

>  <Cum_SuCOS_Score>  (274) 
0

>  <TransFSScore_50nM>  (274) 
0.001191

>  <TransFSScore_1uM>  (274) 
0.024438000000000001

>  <TransFSScore_10nM>  (274) 
0.0030140000000000002

>  <TransFSScore_200nM>  (274) 
0.024899999999999999

>  <TransFSScore>  (274) 
0.01338575

>  <FeatureSteinScore>  (274) 
0.32034816451591036

>  <XCos_RefMols>  (274) 
x1392_0

>  <XCos_NumHits>  (274) 
1

>  <XCos_Score1>  (274) 
9.9892

>  <XCos_Score2>  (274) 
0.0564

>  <XCos_Score3>  (274) 
0.0056

$$$$
C#CC1(O)CCN(Cc2ncn[nH]2)CC1
     RDKit          3D

 15 16  0  0  0  0  0  0  0  0999 V2000
    8.7015   -1.5382   26.5222 C   0  0  0  0  0  0  0  0  0  0  0  0
    8.6946   -2.7085   26.2265 C   0  0  0  0  0  0  0  0  0  0  0  0
    8.6731   -4.1551   25.8780 C   0  0  0  0  0  0  0  0  0  0  0  0
    8.6142   -4.6821   27.1322 O   0  0  0  0  0  0  0  0  0  0  0  0
    9.9445   -4.5550   25.1448 C   0  0  0  0  0  0  0  0  0  0  0  0
   10.1316   -3.5846   23.9815 C   0  0  0  0  0  0  0  0  0  0  0  0
    8.8545   -3.1462   23.3579 N   0  0  0  0  0  0  0  0  0  0  0  0
    8.9526   -2.5869   22.0064 C   0  0  0  0  0  0  0  0  0  0  0  0
    9.1378   -1.1040   21.9532 C   0  0  0  0  0  0  0  0  0  0  0  0
    8.8351   -0.2667   22.9701 N   0  0  0  0  0  0  0  0  0  0  0  0
    9.1428    0.9414   22.4488 C   0  0  0  0  0  0  0  0  0  0  0  0
    9.6015    0.8376   21.1894 N   0  0  0  0  0  0  0  0  0  0  0  0
    9.5983   -0.4427   20.8773 N   0  0  0  0  0  0  0  0  0  0  0  0
    7.7525   -4.1271   23.4915 C   0  0  0  0  0  0  0  0  0  0  0  0
    7.4524   -4.4499   24.9830 C   0  0  0  0  0  0  0  0  0  0  0  0
  1  2  3  0
  2  3  1  0
  3  4  1  0
  3  5  1  0
  5  6  1  0
  6  7  1  0
  7  8  1  0
  7 14  1  0
  8  9  1  0
  9 10  2  0
 10 11  1  0
 11 12  2  0
 12 13  1  0
 13  9  1  0
 14 15  1  0
 15  3  1  0
M  END
>  <Hit>  (275) 
Mpro-x0387_0

>  <Receptor>  (275) 
Mpro-x0874_0

>  <SCORE>  (275) 
-10.7773

>  <SCORE.norm>  (275) 
-0.71848699999999999

>  <SCORE.heavy>  (275) 
15

>  <OrigSmiles>  (275) 
C#CC1(O)CCN(Cc2ncn[nH]2)CC1

>  <SuCOS_Score>  (275) 
0.33891051440675563

>  <Max_SuCOS_Score>  (275) 
0

>  <Cum_SuCOS_Score>  (275) 
0

>  <TransFSScore_50nM>  (275) 
0.0029880000000000002

>  <TransFSScore_1uM>  (275) 
0.023456000000000001

>  <TransFSScore_10nM>  (275) 
0.0030969999999999999

>  <TransFSScore_200nM>  (275) 
0.020663999999999998

>  <TransFSScore>  (275) 
0.01255125

>  <FeatureSteinScore>  (275) 
0.41595760453969671

>  <XCos_RefMols>  (275) 
x1392_0,x0967_0

>  <XCos_NumHits>  (275) 
2

>  <XCos_Score1>  (275) 
10.4353

>  <XCos_Score2>  (275) 
0.1769

>  <XCos_Score3>  (275) 
0.0169

$$$$
C#CC1(O)CCN(Cc2ncn[nH]2)CC1
     RDKit          3D

 15 16  0  0  0  0  0  0  0  0999 V2000
   10.7110   -5.5490   25.4761 C   0  0  0  0  0  0  0  0  0  0  0  0
    9.7413   -4.9441   25.8646 C   0  0  0  0  0  0  0  0  0  0  0  0
    8.5367   -4.2166   26.3484 C   0  0  0  0  0  0  0  0  0  0  0  0
    8.3320   -4.8842   27.5174 O   0  0  0  0  0  0  0  0  0  0  0  0
    7.3764   -4.3843   25.3790 C   0  0  0  0  0  0  0  0  0  0  0  0
    7.8783   -4.0060   23.9880 C   0  0  0  0  0  0  0  0  0  0  0  0
    8.8716   -2.8991   23.9918 N   0  0  0  0  0  0  0  0  0  0  0  0
    9.0655   -2.1989   22.7185 C   0  0  0  0  0  0  0  0  0  0  0  0
   10.3575   -1.4553   22.6019 C   0  0  0  0  0  0  0  0  0  0  0  0
   10.9036   -0.7261   23.6004 N   0  0  0  0  0  0  0  0  0  0  0  0
   12.0226   -0.2383   23.0209 C   0  0  0  0  0  0  0  0  0  0  0  0
   12.1418   -0.6479   21.7460 N   0  0  0  0  0  0  0  0  0  0  0  0
   11.0994   -1.4095   21.4819 N   0  0  0  0  0  0  0  0  0  0  0  0
    8.7334   -1.9714   25.1384 C   0  0  0  0  0  0  0  0  0  0  0  0
    8.8668   -2.7176   26.4965 C   0  0  0  0  0  0  0  0  0  0  0  0
  1  2  3  0
  2  3  1  0
  3  4  1  0
  3  5  1  0
  5  6  1  0
  6  7  1  0
  7  8  1  0
  7 14  1  0
  8  9  1  0
  9 10  2  0
 10 11  1  0
 11 12  2  0
 12 13  1  0
 13  9  1  0
 14 15  1  0
 15  3  1  0
M  END
>  <Hit>  (276) 
Mpro-x0387_0

>  <Receptor>  (276) 
Mpro-x1249_0

>  <SCORE>  (276) 
-11.037699999999999

>  <SCORE.norm>  (276) 
-0.735846

>  <SCORE.heavy>  (276) 
15

>  <OrigSmiles>  (276) 
C#CC1(O)CCN(Cc2ncn[nH]2)CC1

>  <SuCOS_Score>  (276) 
0.50375759490803362

>  <Max_SuCOS_Score>  (276) 
0

>  <Cum_SuCOS_Score>  (276) 
0

>  <TransFSScore_50nM>  (276) 
0.001011

>  <TransFSScore_1uM>  (276) 
0.028811

>  <TransFSScore_10nM>  (276) 
0.0043600000000000002

>  <TransFSScore_200nM>  (276) 
0.024126999999999999

>  <TransFSScore>  (276) 
0.01457725

>  <FeatureSteinScore>  (276) 
0.34733486681472658

>  <XCos_RefMols>  (276) 
x0708_0,x1382_0

>  <XCos_NumHits>  (276) 
2

>  <XCos_Score1>  (276) 
9.9996

>  <XCos_Score2>  (276) 
0.0565

>  <XCos_Score3>  (276) 
0.0056

$$$$
C#CC1(O)CCN(Cc2ncn[nH]2)CC1
     RDKit          3D

 15 16  0  0  0  0  0  0  0  0999 V2000
    8.9382   -2.3606   27.5708 C   0  0  0  0  0  0  0  0  0  0  0  0
    8.8071   -3.5026   27.2023 C   0  0  0  0  0  0  0  0  0  0  0  0
    8.6575   -4.9168   26.7638 C   0  0  0  0  0  0  0  0  0  0  0  0
    8.4453   -5.5008   27.9755 O   0  0  0  0  0  0  0  0  0  0  0  0
    9.9317   -5.4161   26.0995 C   0  0  0  0  0  0  0  0  0  0  0  0
   10.3114   -4.4112   25.0151 C   0  0  0  0  0  0  0  0  0  0  0  0
    9.1410   -3.7999   24.3307 N   0  0  0  0  0  0  0  0  0  0  0  0
    9.4031   -3.1828   23.0270 C   0  0  0  0  0  0  0  0  0  0  0  0
   10.4836   -2.1491   23.0281 C   0  0  0  0  0  0  0  0  0  0  0  0
   10.9607   -1.5544   24.1442 N   0  0  0  0  0  0  0  0  0  0  0  0
   11.8799   -0.6998   23.6437 C   0  0  0  0  0  0  0  0  0  0  0  0
   11.9501   -0.7736   22.3032 N   0  0  0  0  0  0  0  0  0  0  0  0
   11.0757   -1.6803   21.9161 N   0  0  0  0  0  0  0  0  0  0  0  0
    7.9331   -4.6573   24.3243 C   0  0  0  0  0  0  0  0  0  0  0  0
    7.4853   -5.0246   25.7677 C   0  0  0  0  0  0  0  0  0  0  0  0
  1  2  3  0
  2  3  1  0
  3  4  1  0
  3  5  1  0
  5  6  1  0
  6  7  1  0
  7  8  1  0
  7 14  1  0
  8  9  1  0
  9 10  2  0
 10 11  1  0
 11 12  2  0
 12 13  1  0
 13  9  1  0
 14 15  1  0
 15  3  1  0
M  END
>  <Hit>  (277) 
Mpro-x0387_0

>  <Receptor>  (277) 
Mpro-x0305_0

>  <SCORE>  (277) 
-11.115600000000001

>  <SCORE.norm>  (277) 
-0.74104199999999998

>  <SCORE.heavy>  (277) 
15

>  <OrigSmiles>  (277) 
C#CC1(O)CCN(Cc2ncn[nH]2)CC1

>  <SuCOS_Score>  (277) 
0.46709982002549316

>  <Max_SuCOS_Score>  (277) 
0

>  <Cum_SuCOS_Score>  (277) 
0

>  <TransFSScore_50nM>  (277) 
0.001122

>  <TransFSScore_1uM>  (277) 
0.040044000000000003

>  <TransFSScore_10nM>  (277) 
0.00079000000000000001

>  <TransFSScore_200nM>  (277) 
0.060130000000000003

>  <TransFSScore>  (277) 
0.025521500000000003

>  <FeatureSteinScore>  (277) 
0.19414877226589267

>  <XCos_RefMols>  (277) 
x1392_0

>  <XCos_NumHits>  (277) 
1

>  <XCos_Score1>  (277) 
9.3017

>  <XCos_Score2>  (277) 
0.0000

>  <XCos_Score3>  (277) 
0.0000

$$$$
C#CC1(O)CCN(Cc2ncn[nH]2)CC1
     RDKit          3D

 15 16  0  0  0  0  0  0  0  0999 V2000
    8.9022   -1.3661   26.6306 C   0  0  0  0  0  0  0  0  0  0  0  0
    8.6661   -2.5204   26.3682 C   0  0  0  0  0  0  0  0  0  0  0  0
    8.3914   -3.9438   26.0318 C   0  0  0  0  0  0  0  0  0  0  0  0
    8.0981   -4.4108   27.2768 O   0  0  0  0  0  0  0  0  0  0  0  0
    9.6260   -4.6097   25.4434 C   0  0  0  0  0  0  0  0  0  0  0  0
   10.1236   -3.7309   24.2988 C   0  0  0  0  0  0  0  0  0  0  0  0
    9.0322   -3.0668   23.5375 N   0  0  0  0  0  0  0  0  0  0  0  0
    9.3803   -2.5787   22.1997 C   0  0  0  0  0  0  0  0  0  0  0  0
    9.5121   -1.0934   22.0885 C   0  0  0  0  0  0  0  0  0  0  0  0
    9.3028   -0.2364   23.1125 N   0  0  0  0  0  0  0  0  0  0  0  0
    9.5109    0.9646   22.5291 C   0  0  0  0  0  0  0  0  0  0  0  0
    9.8245    0.8380   21.2281 N   0  0  0  0  0  0  0  0  0  0  0  0
    9.8250   -0.4502   20.9504 N   0  0  0  0  0  0  0  0  0  0  0  0
    7.7482   -3.8051   23.5598 C   0  0  0  0  0  0  0  0  0  0  0  0
    7.2361   -4.0172   25.0130 C   0  0  0  0  0  0  0  0  0  0  0  0
  1  2  3  0
  2  3  1  0
  3  4  1  0
  3  5  1  0
  5  6  1  0
  6  7  1  0
  7  8  1  0
  7 14  1  0
  8  9  1  0
  9 10  2  0
 10 11  1  0
 11 12  2  0
 12 13  1  0
 13  9  1  0
 14 15  1  0
 15  3  1  0
M  END
>  <Hit>  (278) 
Mpro-x0387_0

>  <Receptor>  (278) 
Mpro-x0874_0

>  <SCORE>  (278) 
-11.3005

>  <SCORE.norm>  (278) 
-0.75336400000000003

>  <SCORE.heavy>  (278) 
15

>  <OrigSmiles>  (278) 
C#CC1(O)CCN(Cc2ncn[nH]2)CC1

>  <SuCOS_Score>  (278) 
0.31686022652529688

>  <Max_SuCOS_Score>  (278) 
0

>  <Cum_SuCOS_Score>  (278) 
0

>  <TransFSScore_50nM>  (278) 
0.001129

>  <TransFSScore_1uM>  (278) 
0.023075999999999999

>  <TransFSScore_10nM>  (278) 
0.0019710000000000001

>  <TransFSScore_200nM>  (278) 
0.014991000000000001

>  <TransFSScore>  (278) 
0.010291750000000001

>  <FeatureSteinScore>  (278) 
0.37781146884404637

>  <XCos_RefMols>  (278) 
x1392_0

>  <XCos_NumHits>  (278) 
1

>  <XCos_Score1>  (278) 
10.3300

>  <XCos_Score2>  (278) 
0.1167

>  <XCos_Score3>  (278) 
0.0113

$$$$
C#CC1(O)CCN(Cc2ncn[nH]2)CC1
     RDKit          3D

 15 16  0  0  0  0  0  0  0  0999 V2000
    8.9459   -1.8015   27.1643 C   0  0  0  0  0  0  0  0  0  0  0  0
    8.7052   -2.9417   26.8496 C   0  0  0  0  0  0  0  0  0  0  0  0
    8.4290   -4.3513   26.4605 C   0  0  0  0  0  0  0  0  0  0  0  0
    8.2058   -4.8799   27.6954 O   0  0  0  0  0  0  0  0  0  0  0  0
    9.6387   -4.9724   25.7786 C   0  0  0  0  0  0  0  0  0  0  0  0
   10.0666   -4.0344   24.6530 C   0  0  0  0  0  0  0  0  0  0  0  0
    8.9299   -3.3500   23.9810 N   0  0  0  0  0  0  0  0  0  0  0  0
    9.2028   -2.7952   22.6518 C   0  0  0  0  0  0  0  0  0  0  0  0
   10.3357   -1.8206   22.5993 C   0  0  0  0  0  0  0  0  0  0  0  0
   10.8775   -1.2308   23.6881 N   0  0  0  0  0  0  0  0  0  0  0  0
   11.8246   -0.4360   23.1429 C   0  0  0  0  0  0  0  0  0  0  0  0
   11.8495   -0.5392   21.8028 N   0  0  0  0  0  0  0  0  0  0  0  0
   10.9172   -1.4053   21.4607 N   0  0  0  0  0  0  0  0  0  0  0  0
    7.6569   -4.1056   24.0342 C   0  0  0  0  0  0  0  0  0  0  0  0
    7.2233   -4.3923   25.5000 C   0  0  0  0  0  0  0  0  0  0  0  0
  1  2  3  0
  2  3  1  0
  3  4  1  0
  3  5  1  0
  5  6  1  0
  6  7  1  0
  7  8  1  0
  7 14  1  0
  8  9  1  0
  9 10  2  0
 10 11  1  0
 11 12  2  0
 12 13  1  0
 13  9  1  0
 14 15  1  0
 15  3  1  0
M  END
>  <Hit>  (279) 
Mpro-x0387_0

>  <Receptor>  (279) 
Mpro-x1249_0

>  <SCORE>  (279) 
-11.3072

>  <SCORE.norm>  (279) 
-0.75381200000000004

>  <SCORE.heavy>  (279) 
15

>  <OrigSmiles>  (279) 
C#CC1(O)CCN(Cc2ncn[nH]2)CC1

>  <SuCOS_Score>  (279) 
0.4596301707351701

>  <Max_SuCOS_Score>  (279) 
0

>  <Cum_SuCOS_Score>  (279) 
0

>  <TransFSScore_50nM>  (279) 
0.00062399999999999999

>  <TransFSScore_1uM>  (279) 
0.028395

>  <TransFSScore_10nM>  (279) 
0.0033059999999999999

>  <TransFSScore_200nM>  (279) 
0.027002000000000002

>  <TransFSScore>  (279) 
0.014831750000000001

>  <FeatureSteinScore>  (279) 
0.27367346956663879

>  <XCos_RefMols>  (279) 
x1392_0

>  <XCos_NumHits>  (279) 
1

>  <XCos_Score1>  (279) 
10.0470

>  <XCos_Score2>  (279) 
0.0000

>  <XCos_Score3>  (279) 
0.0000

$$$$
C#CC1(O)CCN(Cc2ncn[nH]2)CC1
     RDKit          3D

 15 16  0  0  0  0  0  0  0  0999 V2000
    8.8062   -1.9411   27.1712 C   0  0  0  0  0  0  0  0  0  0  0  0
    8.6590   -3.0933   26.8427 C   0  0  0  0  0  0  0  0  0  0  0  0
    8.4872   -4.5198   26.4553 C   0  0  0  0  0  0  0  0  0  0  0  0
    8.2941   -5.0607   27.6899 O   0  0  0  0  0  0  0  0  0  0  0  0
    9.7428   -5.0540   25.7829 C   0  0  0  0  0  0  0  0  0  0  0  0
   10.1100   -4.0900   24.6578 C   0  0  0  0  0  0  0  0  0  0  0  0
    8.9318   -3.4901   23.9767 N   0  0  0  0  0  0  0  0  0  0  0  0
    9.1732   -2.9198   22.6479 C   0  0  0  0  0  0  0  0  0  0  0  0
   10.2535   -1.8872   22.5953 C   0  0  0  0  0  0  0  0  0  0  0  0
   10.7251   -1.2297   23.6780 N   0  0  0  0  0  0  0  0  0  0  0  0
   11.6466   -0.4045   23.1340 C   0  0  0  0  0  0  0  0  0  0  0  0
   11.7232   -0.5545   21.8003 N   0  0  0  0  0  0  0  0  0  0  0  0
   10.8509   -1.4822   21.4613 N   0  0  0  0  0  0  0  0  0  0  0  0
    7.7159   -4.3349   24.0232 C   0  0  0  0  0  0  0  0  0  0  0  0
    7.2940   -4.6491   25.4869 C   0  0  0  0  0  0  0  0  0  0  0  0
  1  2  3  0
  2  3  1  0
  3  4  1  0
  3  5  1  0
  5  6  1  0
  6  7  1  0
  7  8  1  0
  7 14  1  0
  8  9  1  0
  9 10  2  0
 10 11  1  0
 11 12  2  0
 12 13  1  0
 13  9  1  0
 14 15  1  0
 15  3  1  0
M  END
>  <Hit>  (280) 
Mpro-x0387_0

>  <Receptor>  (280) 
Mpro-x1249_0

>  <SCORE>  (280) 
-11.4815

>  <SCORE.norm>  (280) 
-0.76543099999999997

>  <SCORE.heavy>  (280) 
15

>  <OrigSmiles>  (280) 
C#CC1(O)CCN(Cc2ncn[nH]2)CC1

>  <SuCOS_Score>  (280) 
0.45112867060500417

>  <Max_SuCOS_Score>  (280) 
0

>  <Cum_SuCOS_Score>  (280) 
0

>  <TransFSScore_50nM>  (280) 
0.00060300000000000002

>  <TransFSScore_1uM>  (280) 
0.028823999999999999

>  <TransFSScore_10nM>  (280) 
0.0024949999999999998

>  <TransFSScore_200nM>  (280) 
0.031125

>  <TransFSScore>  (280) 
0.015761749999999998

>  <FeatureSteinScore>  (280) 
0.25891747100545959

>  <XCos_RefMols>  (280) 
x1392_0

>  <XCos_NumHits>  (280) 
1

>  <XCos_Score1>  (280) 
10.0296

>  <XCos_Score2>  (280) 
0.0000

>  <XCos_Score3>  (280) 
0.0000

$$$$
C#CC1(O)CCN(Cc2ncn[nH]2)CC1
     RDKit          3D

 15 16  0  0  0  0  0  0  0  0999 V2000
    8.9536   -2.4940   27.6036 C   0  0  0  0  0  0  0  0  0  0  0  0
    8.9013   -3.6314   27.2028 C   0  0  0  0  0  0  0  0  0  0  0  0
    8.8417   -5.0405   26.7280 C   0  0  0  0  0  0  0  0  0  0  0  0
    8.6843   -5.6691   27.9257 O   0  0  0  0  0  0  0  0  0  0  0  0
   10.1382   -5.4350   26.0369 C   0  0  0  0  0  0  0  0  0  0  0  0
   10.4360   -4.3787   24.9761 C   0  0  0  0  0  0  0  0  0  0  0  0
    9.2187   -3.8301   24.3209 N   0  0  0  0  0  0  0  0  0  0  0  0
    9.4225   -3.1628   23.0316 C   0  0  0  0  0  0  0  0  0  0  0  0
   10.4427   -2.0696   23.0454 C   0  0  0  0  0  0  0  0  0  0  0  0
   10.8198   -1.4006   24.1577 N   0  0  0  0  0  0  0  0  0  0  0  0
   11.7186   -0.5170   23.6705 C   0  0  0  0  0  0  0  0  0  0  0  0
   11.8717   -0.6448   22.3410 N   0  0  0  0  0  0  0  0  0  0  0  0
   11.0728   -1.6163   21.9480 N   0  0  0  0  0  0  0  0  0  0  0  0
    8.0712   -4.7667   24.3041 C   0  0  0  0  0  0  0  0  0  0  0  0
    7.6671   -5.2012   25.7419 C   0  0  0  0  0  0  0  0  0  0  0  0
  1  2  3  0
  2  3  1  0
  3  4  1  0
  3  5  1  0
  5  6  1  0
  6  7  1  0
  7  8  1  0
  7 14  1  0
  8  9  1  0
  9 10  2  0
 10 11  1  0
 11 12  2  0
 12 13  1  0
 13  9  1  0
 14 15  1  0
 15  3  1  0
M  END
>  <Hit>  (281) 
Mpro-x0387_0

>  <Receptor>  (281) 
Mpro-x0305_0

>  <SCORE>  (281) 
-12.3621

>  <SCORE.norm>  (281) 
-0.82414299999999996

>  <SCORE.heavy>  (281) 
15

>  <OrigSmiles>  (281) 
C#CC1(O)CCN(Cc2ncn[nH]2)CC1

>  <SuCOS_Score>  (281) 
0.46866565099656499

>  <Max_SuCOS_Score>  (281) 
0

>  <Cum_SuCOS_Score>  (281) 
0

>  <TransFSScore_50nM>  (281) 
0.0011900000000000001

>  <TransFSScore_1uM>  (281) 
0.041879

>  <TransFSScore_10nM>  (281) 
0.00057899999999999998

>  <TransFSScore_200nM>  (281) 
0.083847000000000005

>  <TransFSScore>  (281) 
0.031873749999999999

>  <FeatureSteinScore>  (281) 
0.19140090035580259

>  <XCos_RefMols>  (281) 
x1392_0

>  <XCos_NumHits>  (281) 
1

>  <XCos_Score1>  (281) 
9.2220

>  <XCos_Score2>  (281) 
0.0000

>  <XCos_Score3>  (281) 
0.0000

$$$$
C#CC1(O)CCN(Cc2ncno2)CC1
     RDKit          3D

 15 16  0  0  0  0  0  0  0  0999 V2000
    7.6277   -6.3623   27.9612 C   0  0  0  0  0  0  0  0  0  0  0  0
    8.1453   -6.0079   26.9314 C   0  0  0  0  0  0  0  0  0  0  0  0
    8.7810   -5.5721   25.6673 C   0  0  0  0  0  0  0  0  0  0  0  0
    9.5619   -6.6304   25.1657 O   0  0  0  0  0  0  0  0  0  0  0  0
    7.6781   -5.2269   24.6559 C   0  0  0  0  0  0  0  0  0  0  0  0
    8.2252   -4.5021   23.4255 C   0  0  0  0  0  0  0  0  0  0  0  0
    9.1384   -3.3777   23.7617 N   0  0  0  0  0  0  0  0  0  0  0  0
    9.1268   -2.1832   22.8936 C   0  0  0  0  0  0  0  0  0  0  0  0
   10.4486   -1.5165   22.6983 C   0  0  0  0  0  0  0  0  0  0  0  0
   11.1307   -1.5025   21.5412 N   0  0  0  0  0  0  0  0  0  0  0  0
   12.2455   -0.8206   21.8593 C   0  0  0  0  0  0  0  0  0  0  0  0
   12.2373   -0.4409   23.1532 N   0  0  0  0  0  0  0  0  0  0  0  0
   11.1152   -0.8893   23.6371 O   0  0  0  0  0  0  0  0  0  0  0  0
    9.2720   -3.0789   25.1972 C   0  0  0  0  0  0  0  0  0  0  0  0
    9.7014   -4.3536   25.9489 C   0  0  0  0  0  0  0  0  0  0  0  0
  1  2  3  0
  2  3  1  0
  3  4  1  0
  3  5  1  0
  5  6  1  0
  6  7  1  0
  7  8  1  0
  7 14  1  0
  8  9  1  0
  9 10  2  0
 10 11  1  0
 11 12  2  0
 12 13  1  0
 13  9  1  0
 14 15  1  0
 15  3  1  0
M  END
>  <Hit>  (282) 
Mpro-x0387_0

>  <Receptor>  (282) 
Mpro-x0874_0

>  <SCORE>  (282) 
-10.4434

>  <SCORE.norm>  (282) 
-0.69622399999999995

>  <SCORE.heavy>  (282) 
15

>  <OrigSmiles>  (282) 
C#CC1(O)CCN(Cc2ncno2)CC1

>  <SuCOS_Score>  (282) 
0.39415548064484701

>  <Max_SuCOS_Score>  (282) 
0

>  <Cum_SuCOS_Score>  (282) 
0

>  <TransFSScore_50nM>  (282) 
0.0054679999999999998

>  <TransFSScore_1uM>  (282) 
0.051924999999999999

>  <TransFSScore_10nM>  (282) 
0.025277000000000001

>  <TransFSScore_200nM>  (282) 
0.0077530000000000003

>  <TransFSScore>  (282) 
0.022605749999999997

>  <FeatureSteinScore>  (282) 
0.40563086482707295

>  <XCos_RefMols>  (282) 
x0708_0,x1382_0,x1385_0

>  <XCos_NumHits>  (282) 
3

>  <XCos_Score1>  (282) 
11.3542

>  <XCos_Score2>  (282) 
0.1283

>  <XCos_Score3>  (282) 
0.0113

$$$$
C#CC1(O)CCN(Cc2ncno2)CC1
     RDKit          3D

 15 16  0  0  0  0  0  0  0  0999 V2000
    7.6383   -6.3290   27.8839 C   0  0  0  0  0  0  0  0  0  0  0  0
    8.1616   -5.9827   26.8541 C   0  0  0  0  0  0  0  0  0  0  0  0
    8.8047   -5.5579   25.5901 C   0  0  0  0  0  0  0  0  0  0  0  0
    9.5912   -6.6194   25.1040 O   0  0  0  0  0  0  0  0  0  0  0  0
    7.7079   -5.2249   24.5681 C   0  0  0  0  0  0  0  0  0  0  0  0
    8.2616   -4.5109   23.3344 C   0  0  0  0  0  0  0  0  0  0  0  0
    9.1702   -3.3814   23.6656 N   0  0  0  0  0  0  0  0  0  0  0  0
    9.1619   -2.1954   22.7859 C   0  0  0  0  0  0  0  0  0  0  0  0
   10.4850   -1.5327   22.5863 C   0  0  0  0  0  0  0  0  0  0  0  0
   11.1632   -1.5204   21.4268 N   0  0  0  0  0  0  0  0  0  0  0  0
   12.2811   -0.8420   21.7414 C   0  0  0  0  0  0  0  0  0  0  0  0
   12.2785   -0.4627   23.0354 N   0  0  0  0  0  0  0  0  0  0  0  0
   11.1567   -0.9078   23.5230 O   0  0  0  0  0  0  0  0  0  0  0  0
    9.2936   -3.0683   25.0990 C   0  0  0  0  0  0  0  0  0  0  0  0
    9.7207   -4.3347   25.8659 C   0  0  0  0  0  0  0  0  0  0  0  0
  1  2  3  0
  2  3  1  0
  3  4  1  0
  3  5  1  0
  5  6  1  0
  6  7  1  0
  7  8  1  0
  7 14  1  0
  8  9  1  0
  9 10  2  0
 10 11  1  0
 11 12  2  0
 12 13  1  0
 13  9  1  0
 14 15  1  0
 15  3  1  0
M  END
>  <Hit>  (283) 
Mpro-x0387_0

>  <Receptor>  (283) 
Mpro-x0874_0

>  <SCORE>  (283) 
-10.4634

>  <SCORE.norm>  (283) 
-0.69756099999999999

>  <SCORE.heavy>  (283) 
15

>  <OrigSmiles>  (283) 
C#CC1(O)CCN(Cc2ncno2)CC1

>  <SuCOS_Score>  (283) 
0.38179075834698806

>  <Max_SuCOS_Score>  (283) 
0

>  <Cum_SuCOS_Score>  (283) 
0

>  <TransFSScore_50nM>  (283) 
0.0054660000000000004

>  <TransFSScore_1uM>  (283) 
0.04675

>  <TransFSScore_10nM>  (283) 
0.026301000000000001

>  <TransFSScore_200nM>  (283) 
0.0085769999999999996

>  <TransFSScore>  (283) 
0.021773500000000001

>  <FeatureSteinScore>  (283) 
0.37619725479651406

>  <XCos_RefMols>  (283) 
x1392_0,x1382_0

>  <XCos_NumHits>  (283) 
2

>  <XCos_Score1>  (283) 
11.2389

>  <XCos_Score2>  (283) 
0.0635

>  <XCos_Score3>  (283) 
0.0056

$$$$
C#CC1(O)CCN(Cc2ncno2)CC1
     RDKit          3D

 15 16  0  0  0  0  0  0  0  0999 V2000
    7.6162   -6.2796   27.9125 C   0  0  0  0  0  0  0  0  0  0  0  0
    8.1428   -5.9467   26.8800 C   0  0  0  0  0  0  0  0  0  0  0  0
    8.7900   -5.5380   25.6127 C   0  0  0  0  0  0  0  0  0  0  0  0
    9.5696   -6.6093   25.1373 O   0  0  0  0  0  0  0  0  0  0  0  0
    7.6963   -5.2070   24.5866 C   0  0  0  0  0  0  0  0  0  0  0  0
    8.2561   -4.5083   23.3469 C   0  0  0  0  0  0  0  0  0  0  0  0
    9.1721   -3.3820   23.6685 N   0  0  0  0  0  0  0  0  0  0  0  0
    9.1727   -2.2042   22.7778 C   0  0  0  0  0  0  0  0  0  0  0  0
   10.4978   -1.5429   22.5859 C   0  0  0  0  0  0  0  0  0  0  0  0
   11.1644   -1.4978   21.4206 N   0  0  0  0  0  0  0  0  0  0  0  0
   12.2894   -0.8360   21.7451 C   0  0  0  0  0  0  0  0  0  0  0  0
   12.3020   -0.4979   23.0504 N   0  0  0  0  0  0  0  0  0  0  0  0
   11.1825   -0.9518   23.5350 O   0  0  0  0  0  0  0  0  0  0  0  0
    9.2964   -3.0565   25.0990 C   0  0  0  0  0  0  0  0  0  0  0  0
    9.7141   -4.3187   25.8781 C   0  0  0  0  0  0  0  0  0  0  0  0
  1  2  3  0
  2  3  1  0
  3  4  1  0
  3  5  1  0
  5  6  1  0
  6  7  1  0
  7  8  1  0
  7 14  1  0
  8  9  1  0
  9 10  2  0
 10 11  1  0
 11 12  2  0
 12 13  1  0
 13  9  1  0
 14 15  1  0
 15  3  1  0
M  END
>  <Hit>  (284) 
Mpro-x0387_0

>  <Receptor>  (284) 
Mpro-x0874_0

>  <SCORE>  (284) 
-10.5571

>  <SCORE.norm>  (284) 
-0.70380699999999996

>  <SCORE.heavy>  (284) 
15

>  <OrigSmiles>  (284) 
C#CC1(O)CCN(Cc2ncno2)CC1

>  <SuCOS_Score>  (284) 
0.38319352461984046

>  <Max_SuCOS_Score>  (284) 
0

>  <Cum_SuCOS_Score>  (284) 
0

>  <TransFSScore_50nM>  (284) 
0.0055620000000000001

>  <TransFSScore_1uM>  (284) 
0.046933000000000002

>  <TransFSScore_10nM>  (284) 
0.025951999999999999

>  <TransFSScore_200nM>  (284) 
0.0088699999999999994

>  <TransFSScore>  (284) 
0.021829250000000001

>  <FeatureSteinScore>  (284) 
0.38368983853974581

>  <XCos_RefMols>  (284) 
x1392_0,x1382_0,x1385_0

>  <XCos_NumHits>  (284) 
3

>  <XCos_Score1>  (284) 
11.3053

>  <XCos_Score2>  (284) 
0.1277

>  <XCos_Score3>  (284) 
0.0113

$$$$
C#CC1(O)CCN(Cc2ncno2)CC1
     RDKit          3D

 15 16  0  0  0  0  0  0  0  0999 V2000
    7.6187   -6.3513   27.9751 C   0  0  0  0  0  0  0  0  0  0  0  0
    8.1303   -6.0120   26.9371 C   0  0  0  0  0  0  0  0  0  0  0  0
    8.7582   -5.5947   25.6630 C   0  0  0  0  0  0  0  0  0  0  0  0
    9.5264   -6.6644   25.1660 O   0  0  0  0  0  0  0  0  0  0  0  0
    7.6493   -5.2515   24.6576 C   0  0  0  0  0  0  0  0  0  0  0  0
    8.1913   -4.5441   23.4149 C   0  0  0  0  0  0  0  0  0  0  0  0
    9.1162   -3.4236   23.7310 N   0  0  0  0  0  0  0  0  0  0  0  0
    9.1064   -2.2383   22.8504 C   0  0  0  0  0  0  0  0  0  0  0  0
   10.4237   -1.5582   22.6717 C   0  0  0  0  0  0  0  0  0  0  0  0
   11.1159   -1.5298   21.5208 N   0  0  0  0  0  0  0  0  0  0  0  0
   12.2215   -0.8400   21.8538 C   0  0  0  0  0  0  0  0  0  0  0  0
   12.1983   -0.4695   23.1501 N   0  0  0  0  0  0  0  0  0  0  0  0
   11.0761   -0.9315   23.6208 O   0  0  0  0  0  0  0  0  0  0  0  0
    9.2647   -3.1106   25.1620 C   0  0  0  0  0  0  0  0  0  0  0  0
    9.6907   -4.3806   25.9236 C   0  0  0  0  0  0  0  0  0  0  0  0
  1  2  3  0
  2  3  1  0
  3  4  1  0
  3  5  1  0
  5  6  1  0
  6  7  1  0
  7  8  1  0
  7 14  1  0
  8  9  1  0
  9 10  2  0
 10 11  1  0
 11 12  2  0
 12 13  1  0
 13  9  1  0
 14 15  1  0
 15  3  1  0
M  END
>  <Hit>  (285) 
Mpro-x0387_0

>  <Receptor>  (285) 
Mpro-x0874_0

>  <SCORE>  (285) 
-10.571400000000001

>  <SCORE.norm>  (285) 
-0.704762

>  <SCORE.heavy>  (285) 
15

>  <OrigSmiles>  (285) 
C#CC1(O)CCN(Cc2ncno2)CC1

>  <SuCOS_Score>  (285) 
0.38344953764058654

>  <Max_SuCOS_Score>  (285) 
0

>  <Cum_SuCOS_Score>  (285) 
0

>  <TransFSScore_50nM>  (285) 
0.0052420000000000001

>  <TransFSScore_1uM>  (285) 
0.052465999999999999

>  <TransFSScore_10nM>  (285) 
0.025385999999999999

>  <TransFSScore_200nM>  (285) 
0.0076309999999999998

>  <TransFSScore>  (285) 
0.02268125

>  <FeatureSteinScore>  (285) 
0.38558632112956065

>  <XCos_RefMols>  (285) 
x1392_0,x1382_0

>  <XCos_NumHits>  (285) 
2

>  <XCos_Score1>  (285) 
11.2909

>  <XCos_Score2>  (285) 
0.1276

>  <XCos_Score3>  (285) 
0.0113

$$$$
C#CC1(O)CCN(Cc2ncno2)CC1
     RDKit          3D

 15 16  0  0  0  0  0  0  0  0999 V2000
    7.6502   -6.3942   28.0379 C   0  0  0  0  0  0  0  0  0  0  0  0
    8.1616   -6.0478   27.0023 C   0  0  0  0  0  0  0  0  0  0  0  0
    8.7887   -5.6224   25.7304 C   0  0  0  0  0  0  0  0  0  0  0  0
    9.5516   -6.6911   25.2230 O   0  0  0  0  0  0  0  0  0  0  0  0
    7.6792   -5.2664   24.7300 C   0  0  0  0  0  0  0  0  0  0  0  0
    8.2216   -4.5509   23.4922 C   0  0  0  0  0  0  0  0  0  0  0  0
    9.1516   -3.4368   23.8159 N   0  0  0  0  0  0  0  0  0  0  0  0
    9.1449   -2.2441   22.9451 C   0  0  0  0  0  0  0  0  0  0  0  0
   10.4686   -1.5806   22.7519 C   0  0  0  0  0  0  0  0  0  0  0  0
   11.1358   -1.5375   21.5868 N   0  0  0  0  0  0  0  0  0  0  0  0
   12.2592   -0.8724   21.9099 C   0  0  0  0  0  0  0  0  0  0  0  0
   12.2704   -0.5304   23.2142 N   0  0  0  0  0  0  0  0  0  0  0  0
   11.1516   -0.9853   23.6996 O   0  0  0  0  0  0  0  0  0  0  0  0
    9.3042   -3.1363   25.2491 C   0  0  0  0  0  0  0  0  0  0  0  0
    9.7265   -4.4143   25.9992 C   0  0  0  0  0  0  0  0  0  0  0  0
  1  2  3  0
  2  3  1  0
  3  4  1  0
  3  5  1  0
  5  6  1  0
  6  7  1  0
  7  8  1  0
  7 14  1  0
  8  9  1  0
  9 10  2  0
 10 11  1  0
 11 12  2  0
 12 13  1  0
 13  9  1  0
 14 15  1  0
 15  3  1  0
M  END
>  <Hit>  (286) 
Mpro-x0387_0

>  <Receptor>  (286) 
Mpro-x0874_0

>  <SCORE>  (286) 
-10.641299999999999

>  <SCORE.norm>  (286) 
-0.70941699999999996

>  <SCORE.heavy>  (286) 
15

>  <OrigSmiles>  (286) 
C#CC1(O)CCN(Cc2ncno2)CC1

>  <SuCOS_Score>  (286) 
0.40106298993193923

>  <Max_SuCOS_Score>  (286) 
0

>  <Cum_SuCOS_Score>  (286) 
0

>  <TransFSScore_50nM>  (286) 
0.0058320000000000004

>  <TransFSScore_1uM>  (286) 
0.053858000000000003

>  <TransFSScore_10nM>  (286) 
0.026293

>  <TransFSScore_200nM>  (286) 
0.0084089999999999998

>  <TransFSScore>  (286) 
0.023598000000000001

>  <FeatureSteinScore>  (286) 
0.39655515474424285

>  <XCos_RefMols>  (286) 
x1392_0,x1382_0

>  <XCos_NumHits>  (286) 
2

>  <XCos_Score1>  (286) 
11.3008

>  <XCos_Score2>  (286) 
0.1277

>  <XCos_Score3>  (286) 
0.0113

$$$$
C#CC1(O)CCN(Cc2ncno2)CC1
     RDKit          3D

 15 16  0  0  0  0  0  0  0  0999 V2000
    7.6526   -6.3565   28.1350 C   0  0  0  0  0  0  0  0  0  0  0  0
    8.1386   -6.0207   27.0837 C   0  0  0  0  0  0  0  0  0  0  0  0
    8.7352   -5.6078   25.7932 C   0  0  0  0  0  0  0  0  0  0  0  0
    9.4909   -6.6794   25.2811 O   0  0  0  0  0  0  0  0  0  0  0  0
    7.6020   -5.2677   24.8141 C   0  0  0  0  0  0  0  0  0  0  0  0
    8.1135   -4.5646   23.5562 C   0  0  0  0  0  0  0  0  0  0  0  0
    9.0460   -3.4432   23.8459 N   0  0  0  0  0  0  0  0  0  0  0  0
    9.0148   -2.2608   22.9618 C   0  0  0  0  0  0  0  0  0  0  0  0
   10.2868   -1.4825   22.8825 C   0  0  0  0  0  0  0  0  0  0  0  0
   11.0741   -1.4194   21.7960 N   0  0  0  0  0  0  0  0  0  0  0  0
   12.0897   -0.6395   22.2075 C   0  0  0  0  0  0  0  0  0  0  0  0
   11.9232   -0.2502   23.4878 N   0  0  0  0  0  0  0  0  0  0  0  0
   10.8024   -0.7908   23.8697 O   0  0  0  0  0  0  0  0  0  0  0  0
    9.2296   -3.1255   25.2717 C   0  0  0  0  0  0  0  0  0  0  0  0
    9.6739   -4.3931   26.0268 C   0  0  0  0  0  0  0  0  0  0  0  0
  1  2  3  0
  2  3  1  0
  3  4  1  0
  3  5  1  0
  5  6  1  0
  6  7  1  0
  7  8  1  0
  7 14  1  0
  8  9  1  0
  9 10  2  0
 10 11  1  0
 11 12  2  0
 12 13  1  0
 13  9  1  0
 14 15  1  0
 15  3  1  0
M  END
>  <Hit>  (287) 
Mpro-x0387_0

>  <Receptor>  (287) 
Mpro-x1249_0

>  <SCORE>  (287) 
-11.0619

>  <SCORE.norm>  (287) 
-0.73746

>  <SCORE.heavy>  (287) 
15

>  <OrigSmiles>  (287) 
C#CC1(O)CCN(Cc2ncno2)CC1

>  <SuCOS_Score>  (287) 
0.3907146199113895

>  <Max_SuCOS_Score>  (287) 
0

>  <Cum_SuCOS_Score>  (287) 
0

>  <TransFSScore_50nM>  (287) 
0.0051139999999999996

>  <TransFSScore_1uM>  (287) 
0.059991000000000003

>  <TransFSScore_10nM>  (287) 
0.025763999999999999

>  <TransFSScore_200nM>  (287) 
0.0073200000000000001

>  <TransFSScore>  (287) 
0.02454725

>  <FeatureSteinScore>  (287) 
0.44133158551278734

>  <XCos_RefMols>  (287) 
x0708_0,x1382_0,x1385_0

>  <XCos_NumHits>  (287) 
3

>  <XCos_Score1>  (287) 
11.5217

>  <XCos_Score2>  (287) 
0.1953

>  <XCos_Score3>  (287) 
0.0169

$$$$
C#CC1(O)CCN(Cc2ncno2)CC1
     RDKit          3D

 15 16  0  0  0  0  0  0  0  0999 V2000
    7.6203   -6.4104   28.0670 C   0  0  0  0  0  0  0  0  0  0  0  0
    8.1238   -6.0647   27.0272 C   0  0  0  0  0  0  0  0  0  0  0  0
    8.7412   -5.6402   25.7503 C   0  0  0  0  0  0  0  0  0  0  0  0
    9.5080   -6.7060   25.2426 O   0  0  0  0  0  0  0  0  0  0  0  0
    7.6240   -5.2948   24.7548 C   0  0  0  0  0  0  0  0  0  0  0  0
    8.1551   -4.5806   23.5113 C   0  0  0  0  0  0  0  0  0  0  0  0
    9.0799   -3.4595   23.8257 N   0  0  0  0  0  0  0  0  0  0  0  0
    9.0610   -2.2702   22.9506 C   0  0  0  0  0  0  0  0  0  0  0  0
   10.3527   -1.5285   22.8442 C   0  0  0  0  0  0  0  0  0  0  0  0
   11.1133   -1.4791   21.7382 N   0  0  0  0  0  0  0  0  0  0  0  0
   12.1615   -0.7325   22.1291 C   0  0  0  0  0  0  0  0  0  0  0  0
   12.0395   -0.3493   23.4162 N   0  0  0  0  0  0  0  0  0  0  0  0
   10.9136   -0.8604   23.8230 O   0  0  0  0  0  0  0  0  0  0  0  0
    9.2386   -3.1527   25.2570 C   0  0  0  0  0  0  0  0  0  0  0  0
    9.6730   -4.4253   26.0095 C   0  0  0  0  0  0  0  0  0  0  0  0
  1  2  3  0
  2  3  1  0
  3  4  1  0
  3  5  1  0
  5  6  1  0
  6  7  1  0
  7  8  1  0
  7 14  1  0
  8  9  1  0
  9 10  2  0
 10 11  1  0
 11 12  2  0
 12 13  1  0
 13  9  1  0
 14 15  1  0
 15  3  1  0
M  END
>  <Hit>  (288) 
Mpro-x0387_0

>  <Receptor>  (288) 
Mpro-x1249_0

>  <SCORE>  (288) 
-11.0731

>  <SCORE.norm>  (288) 
-0.73820799999999998

>  <SCORE.heavy>  (288) 
15

>  <OrigSmiles>  (288) 
C#CC1(O)CCN(Cc2ncno2)CC1

>  <SuCOS_Score>  (288) 
0.39176819898082754

>  <Max_SuCOS_Score>  (288) 
0

>  <Cum_SuCOS_Score>  (288) 
0

>  <TransFSScore_50nM>  (288) 
0.0051029999999999999

>  <TransFSScore_1uM>  (288) 
0.060058

>  <TransFSScore_10nM>  (288) 
0.026686000000000001

>  <TransFSScore_200nM>  (288) 
0.007979

>  <TransFSScore>  (288) 
0.0249565

>  <FeatureSteinScore>  (288) 
0.41508559288901514

>  <XCos_RefMols>  (288) 
x1392_0,x1382_0

>  <XCos_NumHits>  (288) 
2

>  <XCos_Score1>  (288) 
11.3940

>  <XCos_Score2>  (288) 
0.1931

>  <XCos_Score3>  (288) 
0.0169

$$$$
C#CC1(O)CCN(Cc2ncno2)CC1
     RDKit          3D

 15 16  0  0  0  0  0  0  0  0999 V2000
    7.7345   -6.3233   28.3141 C   0  0  0  0  0  0  0  0  0  0  0  0
    8.2412   -6.0178   27.2633 C   0  0  0  0  0  0  0  0  0  0  0  0
    8.8627   -5.6427   25.9730 C   0  0  0  0  0  0  0  0  0  0  0  0
    9.5642   -6.7542   25.4691 O   0  0  0  0  0  0  0  0  0  0  0  0
    7.7518   -5.2501   24.9880 C   0  0  0  0  0  0  0  0  0  0  0  0
    8.3030   -4.5807   23.7284 C   0  0  0  0  0  0  0  0  0  0  0  0
    9.2907   -3.5070   24.0160 N   0  0  0  0  0  0  0  0  0  0  0  0
    9.3232   -2.3292   23.1259 C   0  0  0  0  0  0  0  0  0  0  0  0
   10.6610   -1.6881   22.9551 C   0  0  0  0  0  0  0  0  0  0  0  0
   11.2912   -1.5434   21.7777 N   0  0  0  0  0  0  0  0  0  0  0  0
   12.4456   -0.9485   22.1274 C   0  0  0  0  0  0  0  0  0  0  0  0
   12.5100   -0.7445   23.4588 N   0  0  0  0  0  0  0  0  0  0  0  0
   11.3932   -1.2147   23.9342 O   0  0  0  0  0  0  0  0  0  0  0  0
    9.4854   -3.1917   25.4409 C   0  0  0  0  0  0  0  0  0  0  0  0
    9.8615   -4.4765   26.2040 C   0  0  0  0  0  0  0  0  0  0  0  0
  1  2  3  0
  2  3  1  0
  3  4  1  0
  3  5  1  0
  5  6  1  0
  6  7  1  0
  7  8  1  0
  7 14  1  0
  8  9  1  0
  9 10  2  0
 10 11  1  0
 11 12  2  0
 12 13  1  0
 13  9  1  0
 14 15  1  0
 15  3  1  0
M  END
>  <Hit>  (289) 
Mpro-x0387_0

>  <Receptor>  (289) 
Mpro-x0305_0

>  <SCORE>  (289) 
-11.098699999999999

>  <SCORE.norm>  (289) 
-0.73991099999999999

>  <SCORE.heavy>  (289) 
15

>  <OrigSmiles>  (289) 
C#CC1(O)CCN(Cc2ncno2)CC1

>  <SuCOS_Score>  (289) 
0.44678826889322282

>  <Max_SuCOS_Score>  (289) 
0

>  <Cum_SuCOS_Score>  (289) 
0

>  <TransFSScore_50nM>  (289) 
0.01431

>  <TransFSScore_1uM>  (289) 
0.056209000000000002

>  <TransFSScore_10nM>  (289) 
0.021739999999999999

>  <TransFSScore_200nM>  (289) 
0.014765

>  <TransFSScore>  (289) 
0.026755999999999999

>  <FeatureSteinScore>  (289) 
0.42318463526410088

>  <XCos_RefMols>  (289) 
x1392_0,x1382_0,x1385_0

>  <XCos_NumHits>  (289) 
3

>  <XCos_Score1>  (289) 
11.2211

>  <XCos_Score2>  (289) 
0.1902

>  <XCos_Score3>  (289) 
0.0169

$$$$
C#CC1(O)CCN(Cc2ncno2)CC1
     RDKit          3D

 15 16  0  0  0  0  0  0  0  0999 V2000
    7.7469   -6.3397   28.3625 C   0  0  0  0  0  0  0  0  0  0  0  0
    8.2471   -6.0282   27.3104 C   0  0  0  0  0  0  0  0  0  0  0  0
    8.8608   -5.6452   26.0187 C   0  0  0  0  0  0  0  0  0  0  0  0
    9.5652   -6.7514   25.5073 O   0  0  0  0  0  0  0  0  0  0  0  0
    7.7436   -5.2539   25.0403 C   0  0  0  0  0  0  0  0  0  0  0  0
    8.2860   -4.5770   23.7809 C   0  0  0  0  0  0  0  0  0  0  0  0
    9.2699   -3.4999   24.0682 N   0  0  0  0  0  0  0  0  0  0  0  0
    9.2929   -2.3185   23.1826 C   0  0  0  0  0  0  0  0  0  0  0  0
   10.6294   -1.6789   22.9969 C   0  0  0  0  0  0  0  0  0  0  0  0
   11.2563   -1.5541   21.8155 N   0  0  0  0  0  0  0  0  0  0  0  0
   12.4109   -0.9519   22.1516 C   0  0  0  0  0  0  0  0  0  0  0  0
   12.4787   -0.7246   23.4791 N   0  0  0  0  0  0  0  0  0  0  0  0
   11.3638   -1.1876   23.9657 O   0  0  0  0  0  0  0  0  0  0  0  0
    9.4697   -3.1893   25.4934 C   0  0  0  0  0  0  0  0  0  0  0  0
    9.8553   -4.4752   26.2498 C   0  0  0  0  0  0  0  0  0  0  0  0
  1  2  3  0
  2  3  1  0
  3  4  1  0
  3  5  1  0
  5  6  1  0
  6  7  1  0
  7  8  1  0
  7 14  1  0
  8  9  1  0
  9 10  2  0
 10 11  1  0
 11 12  2  0
 12 13  1  0
 13  9  1  0
 14 15  1  0
 15  3  1  0
M  END
>  <Hit>  (290) 
Mpro-x0387_0

>  <Receptor>  (290) 
Mpro-x0305_0

>  <SCORE>  (290) 
-11.1089

>  <SCORE.norm>  (290) 
-0.74059699999999995

>  <SCORE.heavy>  (290) 
15

>  <OrigSmiles>  (290) 
C#CC1(O)CCN(Cc2ncno2)CC1

>  <SuCOS_Score>  (290) 
0.45026479657155766

>  <Max_SuCOS_Score>  (290) 
0

>  <Cum_SuCOS_Score>  (290) 
0

>  <TransFSScore_50nM>  (290) 
0.013417

>  <TransFSScore_1uM>  (290) 
0.057529999999999998

>  <TransFSScore_10nM>  (290) 
0.021134

>  <TransFSScore_200nM>  (290) 
0.014092

>  <TransFSScore>  (290) 
0.026543249999999997

>  <FeatureSteinScore>  (290) 
0.43371075703542888

>  <XCos_RefMols>  (290) 
x1392_0,x1382_0,x1385_0

>  <XCos_NumHits>  (290) 
3

>  <XCos_Score1>  (290) 
11.1605

>  <XCos_Score2>  (290) 
0.1892

>  <XCos_Score3>  (290) 
0.0169

$$$$
C#CC1(O)CCN(Cc2ncno2)CC1
     RDKit          3D

 15 16  0  0  0  0  0  0  0  0999 V2000
    7.7561   -6.3063   28.3673 C   0  0  0  0  0  0  0  0  0  0  0  0
    8.2521   -6.0044   27.3104 C   0  0  0  0  0  0  0  0  0  0  0  0
    8.8604   -5.6332   26.0127 C   0  0  0  0  0  0  0  0  0  0  0  0
    9.5598   -6.7452   25.5068 O   0  0  0  0  0  0  0  0  0  0  0  0
    7.7394   -5.2473   25.0366 C   0  0  0  0  0  0  0  0  0  0  0  0
    8.2771   -4.5818   23.7692 C   0  0  0  0  0  0  0  0  0  0  0  0
    9.2650   -3.5047   24.0430 N   0  0  0  0  0  0  0  0  0  0  0  0
    9.2863   -2.3305   23.1477 C   0  0  0  0  0  0  0  0  0  0  0  0
   10.6147   -1.6677   22.9868 C   0  0  0  0  0  0  0  0  0  0  0  0
   11.2813   -1.5706   21.8246 N   0  0  0  0  0  0  0  0  0  0  0  0
   12.4098   -0.9309   22.1797 C   0  0  0  0  0  0  0  0  0  0  0  0
   12.4245   -0.6554   23.4996 N   0  0  0  0  0  0  0  0  0  0  0  0
   11.3028   -1.1261   23.9627 O   0  0  0  0  0  0  0  0  0  0  0  0
    9.4724   -3.1831   25.4647 C   0  0  0  0  0  0  0  0  0  0  0  0
    9.8587   -4.4638   26.2295 C   0  0  0  0  0  0  0  0  0  0  0  0
  1  2  3  0
  2  3  1  0
  3  4  1  0
  3  5  1  0
  5  6  1  0
  6  7  1  0
  7  8  1  0
  7 14  1  0
  8  9  1  0
  9 10  2  0
 10 11  1  0
 11 12  2  0
 12 13  1  0
 13  9  1  0
 14 15  1  0
 15  3  1  0
M  END
>  <Hit>  (291) 
Mpro-x0387_0

>  <Receptor>  (291) 
Mpro-x0305_0

>  <SCORE>  (291) 
-11.1107

>  <SCORE.norm>  (291) 
-0.74071500000000001

>  <SCORE.heavy>  (291) 
15

>  <OrigSmiles>  (291) 
C#CC1(O)CCN(Cc2ncno2)CC1

>  <SuCOS_Score>  (291) 
0.44812994064319467

>  <Max_SuCOS_Score>  (291) 
0

>  <Cum_SuCOS_Score>  (291) 
0

>  <TransFSScore_50nM>  (291) 
0.012789999999999999

>  <TransFSScore_1uM>  (291) 
0.060887999999999998

>  <TransFSScore_10nM>  (291) 
0.022581

>  <TransFSScore_200nM>  (291) 
0.01329

>  <TransFSScore>  (291) 
0.027387249999999998

>  <FeatureSteinScore>  (291) 
0.43604881254703881

>  <XCos_RefMols>  (291) 
x1392_0,x1382_0,x1385_0

>  <XCos_NumHits>  (291) 
3

>  <XCos_Score1>  (291) 
11.3077

>  <XCos_Score2>  (291) 
0.1917

>  <XCos_Score3>  (291) 
0.0169

$$$$
C#CC1(O)CCN(Cc2ncon2)CC1
     RDKit          3D

 15 16  0  0  0  0  0  0  0  0999 V2000
   10.5502   -5.5596   25.7060 C   0  0  0  0  0  0  0  0  0  0  0  0
    9.4192   -5.1761   25.8815 C   0  0  0  0  0  0  0  0  0  0  0  0
    8.0133   -4.7225   26.1037 C   0  0  0  0  0  0  0  0  0  0  0  0
    7.7349   -5.3292   27.2966 O   0  0  0  0  0  0  0  0  0  0  0  0
    7.0960   -5.1740   24.9712 C   0  0  0  0  0  0  0  0  0  0  0  0
    7.7510   -4.7575   23.6579 C   0  0  0  0  0  0  0  0  0  0  0  0
    8.4719   -3.4596   23.7351 N   0  0  0  0  0  0  0  0  0  0  0  0
    8.7361   -2.7901   22.4584 C   0  0  0  0  0  0  0  0  0  0  0  0
   10.1302   -2.2751   22.2973 C   0  0  0  0  0  0  0  0  0  0  0  0
   10.4933   -1.3682   21.3664 N   0  0  0  0  0  0  0  0  0  0  0  0
   11.8129   -1.2509   21.6083 C   0  0  0  0  0  0  0  0  0  0  0  0
   12.1872   -2.0262   22.5964 O   0  0  0  0  0  0  0  0  0  0  0  0
   11.1660   -2.6837   23.0537 N   0  0  0  0  0  0  0  0  0  0  0  0
    7.9387   -2.5386   24.7646 C   0  0  0  0  0  0  0  0  0  0  0  0
    7.9787   -3.1834   26.1800 C   0  0  0  0  0  0  0  0  0  0  0  0
  1  2  3  0
  2  3  1  0
  3  4  1  0
  3  5  1  0
  5  6  1  0
  6  7  1  0
  7  8  1  0
  7 14  1  0
  8  9  1  0
  9 10  1  0
 10 11  2  0
 11 12  1  0
 12 13  1  0
 13  9  2  0
 14 15  1  0
 15  3  1  0
M  END
>  <Hit>  (292) 
Mpro-x0387_0

>  <Receptor>  (292) 
Mpro-x0874_0

>  <SCORE>  (292) 
-10.4444

>  <SCORE.norm>  (292) 
-0.69629300000000005

>  <SCORE.heavy>  (292) 
15

>  <OrigSmiles>  (292) 
C#CC1(O)CCN(Cc2ncon2)CC1

>  <SuCOS_Score>  (292) 
0.32170018158523001

>  <Max_SuCOS_Score>  (292) 
0

>  <Cum_SuCOS_Score>  (292) 
0

>  <TransFSScore_50nM>  (292) 
0.001428

>  <TransFSScore_1uM>  (292) 
0.097397999999999998

>  <TransFSScore_10nM>  (292) 
0.013979999999999999

>  <TransFSScore_200nM>  (292) 
0.019709999999999998

>  <TransFSScore>  (292) 
0.033128999999999999

>  <FeatureSteinScore>  (292) 
0.30333854620799594

>  <XCos_RefMols>  (292) 
x1392_0

>  <XCos_NumHits>  (292) 
1

>  <XCos_Score1>  (292) 
9.1190

>  <XCos_Score2>  (292) 
0.0000

>  <XCos_Score3>  (292) 
0.0000

$$$$
C#CC1(O)CCN(Cc2ncon2)CC1
     RDKit          3D

 15 16  0  0  0  0  0  0  0  0999 V2000
   10.4308   -5.6897   25.7288 C   0  0  0  0  0  0  0  0  0  0  0  0
    9.3115   -5.2785   25.9158 C   0  0  0  0  0  0  0  0  0  0  0  0
    7.9252   -4.7813   26.1665 C   0  0  0  0  0  0  0  0  0  0  0  0
    7.6440   -5.3973   27.3540 O   0  0  0  0  0  0  0  0  0  0  0  0
    6.9765   -5.1833   25.0413 C   0  0  0  0  0  0  0  0  0  0  0  0
    7.6258   -4.7681   23.7248 C   0  0  0  0  0  0  0  0  0  0  0  0
    8.3915   -3.4968   23.8111 N   0  0  0  0  0  0  0  0  0  0  0  0
    8.6595   -2.8162   22.5411 C   0  0  0  0  0  0  0  0  0  0  0  0
   10.0725   -2.3637   22.3582 C   0  0  0  0  0  0  0  0  0  0  0  0
   10.4654   -1.4933   21.4049 N   0  0  0  0  0  0  0  0  0  0  0  0
   11.7907   -1.4263   21.6343 C   0  0  0  0  0  0  0  0  0  0  0  0
   12.1405   -2.1950   22.6363 O   0  0  0  0  0  0  0  0  0  0  0  0
   11.0967   -2.7990   23.1156 N   0  0  0  0  0  0  0  0  0  0  0  0
    7.9052   -2.5749   24.8628 C   0  0  0  0  0  0  0  0  0  0  0  0
    7.9441   -3.2433   26.2672 C   0  0  0  0  0  0  0  0  0  0  0  0
  1  2  3  0
  2  3  1  0
  3  4  1  0
  3  5  1  0
  5  6  1  0
  6  7  1  0
  7  8  1  0
  7 14  1  0
  8  9  1  0
  9 10  1  0
 10 11  2  0
 11 12  1  0
 12 13  1  0
 13  9  2  0
 14 15  1  0
 15  3  1  0
M  END
>  <Hit>  (293) 
Mpro-x0387_0

>  <Receptor>  (293) 
Mpro-x0874_0

>  <SCORE>  (293) 
-10.4824

>  <SCORE.norm>  (293) 
-0.69882699999999998

>  <SCORE.heavy>  (293) 
15

>  <OrigSmiles>  (293) 
C#CC1(O)CCN(Cc2ncon2)CC1

>  <SuCOS_Score>  (293) 
0.30845472953493636

>  <Max_SuCOS_Score>  (293) 
0

>  <Cum_SuCOS_Score>  (293) 
0

>  <TransFSScore_50nM>  (293) 
0.0014109999999999999

>  <TransFSScore_1uM>  (293) 
0.086315000000000003

>  <TransFSScore_10nM>  (293) 
0.018289

>  <TransFSScore_200nM>  (293) 
0.023098

>  <TransFSScore>  (293) 
0.032278250000000001

>  <FeatureSteinScore>  (293) 
0.29407102462249829

>  <XCos_RefMols>  (293) 
x1392_0

>  <XCos_NumHits>  (293) 
1

>  <XCos_Score1>  (293) 
9.0197

>  <XCos_Score2>  (293) 
0.0510

>  <XCos_Score3>  (293) 
0.0056

$$$$
C#CC1(O)CCN(Cc2ncon2)CC1
     RDKit          3D

 15 16  0  0  0  0  0  0  0  0999 V2000
    7.6518   -6.3174   28.0313 C   0  0  0  0  0  0  0  0  0  0  0  0
    8.1562   -6.0029   26.9821 C   0  0  0  0  0  0  0  0  0  0  0  0
    8.7749   -5.6167   25.6937 C   0  0  0  0  0  0  0  0  0  0  0  0
    9.5438   -6.6966   25.2201 O   0  0  0  0  0  0  0  0  0  0  0  0
    7.6589   -5.3034   24.6866 C   0  0  0  0  0  0  0  0  0  0  0  0
    8.1881   -4.6230   23.4236 C   0  0  0  0  0  0  0  0  0  0  0  0
    9.1132   -3.4934   23.7049 N   0  0  0  0  0  0  0  0  0  0  0  0
    9.0921   -2.3266   22.7996 C   0  0  0  0  0  0  0  0  0  0  0  0
   10.3897   -1.5994   22.6517 C   0  0  0  0  0  0  0  0  0  0  0  0
   10.9728   -0.8936   23.6430 N   0  0  0  0  0  0  0  0  0  0  0  0
   12.0661   -0.3999   23.0215 C   0  0  0  0  0  0  0  0  0  0  0  0
   12.1167   -0.7781   21.7655 O   0  0  0  0  0  0  0  0  0  0  0  0
   11.0879   -1.5217   21.5065 N   0  0  0  0  0  0  0  0  0  0  0  0
    9.2704   -3.1452   25.1269 C   0  0  0  0  0  0  0  0  0  0  0  0
    9.7051   -4.3938   25.9171 C   0  0  0  0  0  0  0  0  0  0  0  0
  1  2  3  0
  2  3  1  0
  3  4  1  0
  3  5  1  0
  5  6  1  0
  6  7  1  0
  7  8  1  0
  7 14  1  0
  8  9  1  0
  9 10  1  0
 10 11  2  0
 11 12  1  0
 12 13  1  0
 13  9  2  0
 14 15  1  0
 15  3  1  0
M  END
>  <Hit>  (294) 
Mpro-x0387_0

>  <Receptor>  (294) 
Mpro-x0874_0

>  <SCORE>  (294) 
-10.520799999999999

>  <SCORE.norm>  (294) 
-0.70138800000000001

>  <SCORE.heavy>  (294) 
15

>  <OrigSmiles>  (294) 
C#CC1(O)CCN(Cc2ncon2)CC1

>  <SuCOS_Score>  (294) 
0.37274827059188093

>  <Max_SuCOS_Score>  (294) 
0

>  <Cum_SuCOS_Score>  (294) 
0

>  <TransFSScore_50nM>  (294) 
0.0049769999999999997

>  <TransFSScore_1uM>  (294) 
0.075730000000000006

>  <TransFSScore_10nM>  (294) 
0.0090109999999999999

>  <TransFSScore_200nM>  (294) 
0.028284

>  <TransFSScore>  (294) 
0.029500500000000002

>  <FeatureSteinScore>  (294) 
0.36173512439805094

>  <XCos_RefMols>  (294) 
x1392_0,x1382_0,x1385_0

>  <XCos_NumHits>  (294) 
3

>  <XCos_Score1>  (294) 
11.3398

>  <XCos_Score2>  (294) 
0.1281

>  <XCos_Score3>  (294) 
0.0113

$$$$
C#CC1(O)CCN(Cc2ncon2)CC1
     RDKit          3D

 15 16  0  0  0  0  0  0  0  0999 V2000
    7.7064   -6.2937   27.5203 C   0  0  0  0  0  0  0  0  0  0  0  0
    8.2088   -5.8898   26.5010 C   0  0  0  0  0  0  0  0  0  0  0  0
    8.8254   -5.3934   25.2500 C   0  0  0  0  0  0  0  0  0  0  0  0
    9.5455   -6.4452   24.6529 O   0  0  0  0  0  0  0  0  0  0  0  0
    7.7094   -4.9344   24.3003 C   0  0  0  0  0  0  0  0  0  0  0  0
    8.2483   -4.1449   23.1067 C   0  0  0  0  0  0  0  0  0  0  0  0
    9.2201   -3.0865   23.4892 N   0  0  0  0  0  0  0  0  0  0  0  0
    9.2326   -1.8308   22.7116 C   0  0  0  0  0  0  0  0  0  0  0  0
   10.5789   -1.2194   22.4924 C   0  0  0  0  0  0  0  0  0  0  0  0
   11.3012   -0.6242   23.4645 N   0  0  0  0  0  0  0  0  0  0  0  0
   12.3861   -0.2008   22.7796 C   0  0  0  0  0  0  0  0  0  0  0  0
   12.3040   -0.5146   21.5077 O   0  0  0  0  0  0  0  0  0  0  0  0
   11.1918   -1.1454   21.2991 N   0  0  0  0  0  0  0  0  0  0  0  0
    9.4090   -2.8961   24.9370 C   0  0  0  0  0  0  0  0  0  0  0  0
    9.8051   -4.2363   25.5845 C   0  0  0  0  0  0  0  0  0  0  0  0
  1  2  3  0
  2  3  1  0
  3  4  1  0
  3  5  1  0
  5  6  1  0
  6  7  1  0
  7  8  1  0
  7 14  1  0
  8  9  1  0
  9 10  1  0
 10 11  2  0
 11 12  1  0
 12 13  1  0
 13  9  2  0
 14 15  1  0
 15  3  1  0
M  END
>  <Hit>  (295) 
Mpro-x0387_0

>  <Receptor>  (295) 
Mpro-x0874_0

>  <SCORE>  (295) 
-10.6395

>  <SCORE.norm>  (295) 
-0.70930000000000004

>  <SCORE.heavy>  (295) 
15

>  <OrigSmiles>  (295) 
C#CC1(O)CCN(Cc2ncon2)CC1

>  <SuCOS_Score>  (295) 
0.37238919515828228

>  <Max_SuCOS_Score>  (295) 
0

>  <Cum_SuCOS_Score>  (295) 
0

>  <TransFSScore_50nM>  (295) 
0.003813

>  <TransFSScore_1uM>  (295) 
0.062916

>  <TransFSScore_10nM>  (295) 
0.010187999999999999

>  <TransFSScore_200nM>  (295) 
0.028299000000000001

>  <TransFSScore>  (295) 
0.026304000000000001

>  <FeatureSteinScore>  (295) 
0.35848253392491697

>  <XCos_RefMols>  (295) 
x1392_0,x1382_0

>  <XCos_NumHits>  (295) 
2

>  <XCos_Score1>  (295) 
10.8670

>  <XCos_Score2>  (295) 
0.0614

>  <XCos_Score3>  (295) 
0.0056

$$$$
C#CC1(O)CCN(Cc2ncon2)CC1
     RDKit          3D

 15 16  0  0  0  0  0  0  0  0999 V2000
    7.6552   -6.3653   28.1190 C   0  0  0  0  0  0  0  0  0  0  0  0
    8.1470   -6.0298   27.0702 C   0  0  0  0  0  0  0  0  0  0  0  0
    8.7501   -5.6179   25.7824 C   0  0  0  0  0  0  0  0  0  0  0  0
    9.5082   -6.6901   25.2752 O   0  0  0  0  0  0  0  0  0  0  0  0
    7.6221   -5.2785   24.7974 C   0  0  0  0  0  0  0  0  0  0  0  0
    8.1372   -4.5728   23.5425 C   0  0  0  0  0  0  0  0  0  0  0  0
    9.0706   -3.4531   23.8359 N   0  0  0  0  0  0  0  0  0  0  0  0
    9.0423   -2.2667   22.9566 C   0  0  0  0  0  0  0  0  0  0  0  0
   10.3238   -1.5036   22.8588 C   0  0  0  0  0  0  0  0  0  0  0  0
   10.8238   -0.7436   23.8553 N   0  0  0  0  0  0  0  0  0  0  0  0
   11.9375   -0.2375   23.2819 C   0  0  0  0  0  0  0  0  0  0  0  0
   12.0760   -0.6595   22.0466 O   0  0  0  0  0  0  0  0  0  0  0  0
   11.0880   -1.4450   21.7552 N   0  0  0  0  0  0  0  0  0  0  0  0
    9.2480   -3.1366   25.2630 C   0  0  0  0  0  0  0  0  0  0  0  0
    9.6881   -4.4038   26.0199 C   0  0  0  0  0  0  0  0  0  0  0  0
  1  2  3  0
  2  3  1  0
  3  4  1  0
  3  5  1  0
  5  6  1  0
  6  7  1  0
  7  8  1  0
  7 14  1  0
  8  9  1  0
  9 10  1  0
 10 11  2  0
 11 12  1  0
 12 13  1  0
 13  9  2  0
 14 15  1  0
 15  3  1  0
M  END
>  <Hit>  (296) 
Mpro-x0387_0

>  <Receptor>  (296) 
Mpro-x1249_0

>  <SCORE>  (296) 
-10.6662

>  <SCORE.norm>  (296) 
-0.71107699999999996

>  <SCORE.heavy>  (296) 
15

>  <OrigSmiles>  (296) 
C#CC1(O)CCN(Cc2ncon2)CC1

>  <SuCOS_Score>  (296) 
0.38755403632558499

>  <Max_SuCOS_Score>  (296) 
0

>  <Cum_SuCOS_Score>  (296) 
0

>  <TransFSScore_50nM>  (296) 
0.0052500000000000003

>  <TransFSScore_1uM>  (296) 
0.077467999999999995

>  <TransFSScore_10nM>  (296) 
0.0068739999999999999

>  <TransFSScore_200nM>  (296) 
0.023446000000000002

>  <TransFSScore>  (296) 
0.0282595

>  <FeatureSteinScore>  (296) 
0.40744437905757719

>  <XCos_RefMols>  (296) 
x1392_0,x1382_0,x1385_0

>  <XCos_NumHits>  (296) 
3

>  <XCos_Score1>  (296) 
11.4942

>  <XCos_Score2>  (296) 
0.1299

>  <XCos_Score3>  (296) 
0.0113

$$$$
C#CC1(O)CCN(Cc2ncon2)CC1
     RDKit          3D

 15 16  0  0  0  0  0  0  0  0999 V2000
    7.6074   -6.3939   28.0682 C   0  0  0  0  0  0  0  0  0  0  0  0
    8.1128   -6.0553   27.0269 C   0  0  0  0  0  0  0  0  0  0  0  0
    8.7332   -5.6403   25.7484 C   0  0  0  0  0  0  0  0  0  0  0  0
    9.5060   -6.7078   25.2537 O   0  0  0  0  0  0  0  0  0  0  0  0
    7.6184   -5.3088   24.7457 C   0  0  0  0  0  0  0  0  0  0  0  0
    8.1484   -4.6004   23.4984 C   0  0  0  0  0  0  0  0  0  0  0  0
    9.0697   -3.4745   23.8056 N   0  0  0  0  0  0  0  0  0  0  0  0
    9.0473   -2.2889   22.9252 C   0  0  0  0  0  0  0  0  0  0  0  0
   10.3234   -1.5139   22.8516 C   0  0  0  0  0  0  0  0  0  0  0  0
   10.7994   -0.7528   23.8590 N   0  0  0  0  0  0  0  0  0  0  0  0
   11.9180   -0.2347   23.3061 C   0  0  0  0  0  0  0  0  0  0  0  0
   12.0813   -0.6512   22.0720 O   0  0  0  0  0  0  0  0  0  0  0  0
   11.1055   -1.4446   21.7613 N   0  0  0  0  0  0  0  0  0  0  0  0
    9.2229   -3.1560   25.2351 C   0  0  0  0  0  0  0  0  0  0  0  0
    9.6595   -4.4199   25.9996 C   0  0  0  0  0  0  0  0  0  0  0  0
  1  2  3  0
  2  3  1  0
  3  4  1  0
  3  5  1  0
  5  6  1  0
  6  7  1  0
  7  8  1  0
  7 14  1  0
  8  9  1  0
  9 10  1  0
 10 11  2  0
 11 12  1  0
 12 13  1  0
 13  9  2  0
 14 15  1  0
 15  3  1  0
M  END
>  <Hit>  (297) 
Mpro-x0387_0

>  <Receptor>  (297) 
Mpro-x1249_0

>  <SCORE>  (297) 
-10.7248

>  <SCORE.norm>  (297) 
-0.71498399999999995

>  <SCORE.heavy>  (297) 
15

>  <OrigSmiles>  (297) 
C#CC1(O)CCN(Cc2ncon2)CC1

>  <SuCOS_Score>  (297) 
0.38251415147698842

>  <Max_SuCOS_Score>  (297) 
0

>  <Cum_SuCOS_Score>  (297) 
0

>  <TransFSScore_50nM>  (297) 
0.0053759999999999997

>  <TransFSScore_1uM>  (297) 
0.080438999999999997

>  <TransFSScore_10nM>  (297) 
0.006979

>  <TransFSScore_200nM>  (297) 
0.023688000000000001

>  <TransFSScore>  (297) 
0.029120500000000001

>  <FeatureSteinScore>  (297) 
0.39274758247757496

>  <XCos_RefMols>  (297) 
x1392_0,x1382_0

>  <XCos_NumHits>  (297) 
2

>  <XCos_Score1>  (297) 
11.4252

>  <XCos_Score2>  (297) 
0.1291

>  <XCos_Score3>  (297) 
0.0113

$$$$
C#CC1(O)CCN(Cc2ncon2)CC1
     RDKit          3D

 15 16  0  0  0  0  0  0  0  0999 V2000
    7.6333   -6.3548   28.0771 C   0  0  0  0  0  0  0  0  0  0  0  0
    8.1311   -6.0333   27.0268 C   0  0  0  0  0  0  0  0  0  0  0  0
    8.7424   -5.6380   25.7376 C   0  0  0  0  0  0  0  0  0  0  0  0
    9.5072   -6.7150   25.2512 O   0  0  0  0  0  0  0  0  0  0  0  0
    7.6205   -5.3160   24.7398 C   0  0  0  0  0  0  0  0  0  0  0  0
    8.1426   -4.6266   23.4787 C   0  0  0  0  0  0  0  0  0  0  0  0
    9.0706   -3.5002   23.7629 N   0  0  0  0  0  0  0  0  0  0  0  0
    9.0452   -2.3265   22.8666 C   0  0  0  0  0  0  0  0  0  0  0  0
   10.2925   -1.5031   22.8438 C   0  0  0  0  0  0  0  0  0  0  0  0
   10.7426   -0.7917   23.8984 N   0  0  0  0  0  0  0  0  0  0  0  0
   11.8410   -0.1994   23.3808 C   0  0  0  0  0  0  0  0  0  0  0  0
   12.0172   -0.5295   22.1226 O   0  0  0  0  0  0  0  0  0  0  0  0
   11.0700   -1.3359   21.7609 N   0  0  0  0  0  0  0  0  0  0  0  0
    9.2369   -3.1628   25.1865 C   0  0  0  0  0  0  0  0  0  0  0  0
    9.6751   -4.4178   25.9645 C   0  0  0  0  0  0  0  0  0  0  0  0
  1  2  3  0
  2  3  1  0
  3  4  1  0
  3  5  1  0
  5  6  1  0
  6  7  1  0
  7  8  1  0
  7 14  1  0
  8  9  1  0
  9 10  1  0
 10 11  2  0
 11 12  1  0
 12 13  1  0
 13  9  2  0
 14 15  1  0
 15  3  1  0
M  END
>  <Hit>  (298) 
Mpro-x0387_0

>  <Receptor>  (298) 
Mpro-x1249_0

>  <SCORE>  (298) 
-10.8688

>  <SCORE.norm>  (298) 
-0.72458400000000001

>  <SCORE.heavy>  (298) 
15

>  <OrigSmiles>  (298) 
C#CC1(O)CCN(Cc2ncon2)CC1

>  <SuCOS_Score>  (298) 
0.37532257790394191

>  <Max_SuCOS_Score>  (298) 
0

>  <Cum_SuCOS_Score>  (298) 
0

>  <TransFSScore_50nM>  (298) 
0.0060910000000000001

>  <TransFSScore_1uM>  (298) 
0.078293000000000001

>  <TransFSScore_10nM>  (298) 
0.0069210000000000001

>  <TransFSScore_200nM>  (298) 
0.020572

>  <TransFSScore>  (298) 
0.027969250000000001

>  <FeatureSteinScore>  (298) 
0.387972075232903

>  <XCos_RefMols>  (298) 
x1392_0,x1382_0

>  <XCos_NumHits>  (298) 
2

>  <XCos_Score1>  (298) 
11.4734

>  <XCos_Score2>  (298) 
0.1296

>  <XCos_Score3>  (298) 
0.0113

$$$$
C#CC1(O)CCN(Cc2ncon2)CC1
     RDKit          3D

 15 16  0  0  0  0  0  0  0  0999 V2000
    7.5942   -6.3076   28.0635 C   0  0  0  0  0  0  0  0  0  0  0  0
    8.0993   -5.9950   27.0139 C   0  0  0  0  0  0  0  0  0  0  0  0
    8.7198   -5.6116   25.7257 C   0  0  0  0  0  0  0  0  0  0  0  0
    9.4895   -6.6924   25.2556 O   0  0  0  0  0  0  0  0  0  0  0  0
    7.6052   -5.3006   24.7163 C   0  0  0  0  0  0  0  0  0  0  0  0
    8.1362   -4.6229   23.4525 C   0  0  0  0  0  0  0  0  0  0  0  0
    9.0609   -3.4927   23.7327 N   0  0  0  0  0  0  0  0  0  0  0  0
    9.0410   -2.3278   22.8249 C   0  0  0  0  0  0  0  0  0  0  0  0
   10.3206   -1.5612   22.7285 C   0  0  0  0  0  0  0  0  0  0  0  0
   10.8295   -0.8191   23.7340 N   0  0  0  0  0  0  0  0  0  0  0  0
   11.9369   -0.3009   23.1589 C   0  0  0  0  0  0  0  0  0  0  0  0
   12.0636   -0.6998   21.9148 O   0  0  0  0  0  0  0  0  0  0  0  0
   11.0737   -1.4812   21.6187 N   0  0  0  0  0  0  0  0  0  0  0  0
    9.2159   -3.1413   25.1542 C   0  0  0  0  0  0  0  0  0  0  0  0
    9.6496   -4.3882   25.9478 C   0  0  0  0  0  0  0  0  0  0  0  0
  1  2  3  0
  2  3  1  0
  3  4  1  0
  3  5  1  0
  5  6  1  0
  6  7  1  0
  7  8  1  0
  7 14  1  0
  8  9  1  0
  9 10  1  0
 10 11  2  0
 11 12  1  0
 12 13  1  0
 13  9  2  0
 14 15  1  0
 15  3  1  0
M  END
>  <Hit>  (299) 
Mpro-x0387_0

>  <Receptor>  (299) 
Mpro-x1249_0

>  <SCORE>  (299) 
-10.8726

>  <SCORE.norm>  (299) 
-0.72484300000000002

>  <SCORE.heavy>  (299) 
15

>  <OrigSmiles>  (299) 
C#CC1(O)CCN(Cc2ncon2)CC1

>  <SuCOS_Score>  (299) 
0.37039777596648188

>  <Max_SuCOS_Score>  (299) 
0

>  <Cum_SuCOS_Score>  (299) 
0

>  <TransFSScore_50nM>  (299) 
0.0043150000000000003

>  <TransFSScore_1uM>  (299) 
0.077839000000000005

>  <TransFSScore_10nM>  (299) 
0.0074520000000000003

>  <TransFSScore_200nM>  (299) 
0.025079000000000001

>  <TransFSScore>  (299) 
0.028671250000000002

>  <FeatureSteinScore>  (299) 
0.37990341278932999

>  <XCos_RefMols>  (299) 
x1392_0,x1382_0

>  <XCos_NumHits>  (299) 
2

>  <XCos_Score1>  (299) 
11.4254

>  <XCos_Score2>  (299) 
0.1291

>  <XCos_Score3>  (299) 
0.0113

$$$$
C#CC1(O)CCN(Cc2ncon2)CC1
     RDKit          3D

 15 16  0  0  0  0  0  0  0  0999 V2000
    7.7281   -6.2481   28.1309 C   0  0  0  0  0  0  0  0  0  0  0  0
    8.2028   -5.9608   27.0601 C   0  0  0  0  0  0  0  0  0  0  0  0
    8.7851   -5.6085   25.7454 C   0  0  0  0  0  0  0  0  0  0  0  0
    9.5192   -6.7100   25.2666 O   0  0  0  0  0  0  0  0  0  0  0  0
    7.6418   -5.2933   24.7699 C   0  0  0  0  0  0  0  0  0  0  0  0
    8.1406   -4.6448   23.4780 C   0  0  0  0  0  0  0  0  0  0  0  0
    9.0938   -3.5270   23.7082 N   0  0  0  0  0  0  0  0  0  0  0  0
    9.0628   -2.3761   22.7830 C   0  0  0  0  0  0  0  0  0  0  0  0
   10.3168   -1.5653   22.7173 C   0  0  0  0  0  0  0  0  0  0  0  0
   10.8178   -0.8704   23.7598 N   0  0  0  0  0  0  0  0  0  0  0  0
   11.9001   -0.2837   23.2034 C   0  0  0  0  0  0  0  0  0  0  0  0
   12.0204   -0.6016   21.9355 O   0  0  0  0  0  0  0  0  0  0  0  0
   11.0504   -1.3940   21.6048 N   0  0  0  0  0  0  0  0  0  0  0  0
    9.3038   -3.1566   25.1178 C   0  0  0  0  0  0  0  0  0  0  0  0
    9.7430   -4.3986   25.9159 C   0  0  0  0  0  0  0  0  0  0  0  0
  1  2  3  0
  2  3  1  0
  3  4  1  0
  3  5  1  0
  5  6  1  0
  6  7  1  0
  7  8  1  0
  7 14  1  0
  8  9  1  0
  9 10  1  0
 10 11  2  0
 11 12  1  0
 12 13  1  0
 13  9  2  0
 14 15  1  0
 15  3  1  0
M  END
>  <Hit>  (300) 
Mpro-x0387_0

>  <Receptor>  (300) 
Mpro-x1249_0

>  <SCORE>  (300) 
-10.933999999999999

>  <SCORE.norm>  (300) 
-0.72893399999999997

>  <SCORE.heavy>  (300) 
15

>  <OrigSmiles>  (300) 
C#CC1(O)CCN(Cc2ncon2)CC1

>  <SuCOS_Score>  (300) 
0.37008083588707191

>  <Max_SuCOS_Score>  (300) 
0

>  <Cum_SuCOS_Score>  (300) 
0

>  <TransFSScore_50nM>  (300) 
0.0055729999999999998

>  <TransFSScore_1uM>  (300) 
0.077453999999999995

>  <TransFSScore_10nM>  (300) 
0.0076470000000000002

>  <TransFSScore_200nM>  (300) 
0.021652999999999999

>  <TransFSScore>  (300) 
0.028081749999999996

>  <FeatureSteinScore>  (300) 
0.3792348917299817

>  <XCos_RefMols>  (300) 
x1392_0,x1382_0,x1385_0

>  <XCos_NumHits>  (300) 
3

>  <XCos_Score1>  (300) 
11.5593

>  <XCos_Score2>  (300) 
0.1306

>  <XCos_Score3>  (300) 
0.0113

$$$$
C#CC1(O)CCN(Cc2ncon2)CC1
     RDKit          3D

 15 16  0  0  0  0  0  0  0  0999 V2000
    7.7504   -6.3179   28.3434 C   0  0  0  0  0  0  0  0  0  0  0  0
    8.2450   -6.0145   27.2862 C   0  0  0  0  0  0  0  0  0  0  0  0
    8.8527   -5.6418   25.9887 C   0  0  0  0  0  0  0  0  0  0  0  0
    9.5592   -6.7505   25.4856 O   0  0  0  0  0  0  0  0  0  0  0  0
    7.7307   -5.2641   25.0107 C   0  0  0  0  0  0  0  0  0  0  0  0
    8.2634   -4.5937   23.7437 C   0  0  0  0  0  0  0  0  0  0  0  0
    9.2467   -3.5122   24.0169 N   0  0  0  0  0  0  0  0  0  0  0  0
    9.2606   -2.3345   23.1257 C   0  0  0  0  0  0  0  0  0  0  0  0
   10.5865   -1.6646   22.9599 C   0  0  0  0  0  0  0  0  0  0  0  0
   11.2590   -1.0699   23.9673 N   0  0  0  0  0  0  0  0  0  0  0  0
   12.3435   -0.5846   23.3240 C   0  0  0  0  0  0  0  0  0  0  0  0
   12.3069   -0.8645   22.0421 O   0  0  0  0  0  0  0  0  0  0  0  0
   11.2266   -1.5322   21.7861 N   0  0  0  0  0  0  0  0  0  0  0  0
    9.4513   -3.1894   25.4389 C   0  0  0  0  0  0  0  0  0  0  0  0
    9.8441   -4.4667   26.2048 C   0  0  0  0  0  0  0  0  0  0  0  0
  1  2  3  0
  2  3  1  0
  3  4  1  0
  3  5  1  0
  5  6  1  0
  6  7  1  0
  7  8  1  0
  7 14  1  0
  8  9  1  0
  9 10  1  0
 10 11  2  0
 11 12  1  0
 12 13  1  0
 13  9  2  0
 14 15  1  0
 15  3  1  0
M  END
>  <Hit>  (301) 
Mpro-x0387_0

>  <Receptor>  (301) 
Mpro-x0305_0

>  <SCORE>  (301) 
-10.9481

>  <SCORE.norm>  (301) 
-0.72987599999999997

>  <SCORE.heavy>  (301) 
15

>  <OrigSmiles>  (301) 
C#CC1(O)CCN(Cc2ncon2)CC1

>  <SuCOS_Score>  (301) 
0.43893637232423666

>  <Max_SuCOS_Score>  (301) 
0

>  <Cum_SuCOS_Score>  (301) 
0

>  <TransFSScore_50nM>  (301) 
0.0081069999999999996

>  <TransFSScore_1uM>  (301) 
0.069956000000000004

>  <TransFSScore_10nM>  (301) 
0.0088679999999999991

>  <TransFSScore_200nM>  (301) 
0.057063000000000003

>  <TransFSScore>  (301) 
0.035998500000000003

>  <FeatureSteinScore>  (301) 
0.40216518901211534

>  <XCos_RefMols>  (301) 
x1392_0,x1382_0,x1385_0

>  <XCos_NumHits>  (301) 
3

>  <XCos_Score1>  (301) 
11.3320

>  <XCos_Score2>  (301) 
0.1921

>  <XCos_Score3>  (301) 
0.0169

$$$$
C#CC1(O)CCN(Cc2nnc[nH]2)CC1
     RDKit          3D

 15 16  0  0  0  0  0  0  0  0999 V2000
    8.8778   -2.3538   27.4962 C   0  0  0  0  0  0  0  0  0  0  0  0
    8.8656   -3.5332   27.2401 C   0  0  0  0  0  0  0  0  0  0  0  0
    8.8394   -4.9885   26.9040 C   0  0  0  0  0  0  0  0  0  0  0  0
    8.7526   -5.5374   28.1529 O   0  0  0  0  0  0  0  0  0  0  0  0
   10.0965   -5.4092   26.1485 C   0  0  0  0  0  0  0  0  0  0  0  0
   10.2767   -4.4400   24.9843 C   0  0  0  0  0  0  0  0  0  0  0  0
    8.9965   -3.9958   24.3731 N   0  0  0  0  0  0  0  0  0  0  0  0
    9.0844   -3.4431   23.0185 C   0  0  0  0  0  0  0  0  0  0  0  0
   10.1140   -2.3736   22.8435 C   0  0  0  0  0  0  0  0  0  0  0  0
    9.8212   -1.0870   22.5803 N   0  0  0  0  0  0  0  0  0  0  0  0
   10.9765   -0.4546   22.4751 N   0  0  0  0  0  0  0  0  0  0  0  0
   11.9416   -1.3707   22.6748 C   0  0  0  0  0  0  0  0  0  0  0  0
   11.4406   -2.5988   22.9100 N   0  0  0  0  0  0  0  0  0  0  0  0
    7.8914   -4.9700   24.5231 C   0  0  0  0  0  0  0  0  0  0  0  0
    7.6123   -5.2871   26.0204 C   0  0  0  0  0  0  0  0  0  0  0  0
  1  2  3  0
  2  3  1  0
  3  4  1  0
  3  5  1  0
  5  6  1  0
  6  7  1  0
  7  8  1  0
  7 14  1  0
  8  9  1  0
  9 10  2  0
 10 11  1  0
 11 12  2  0
 12 13  1  0
 13  9  1  0
 14 15  1  0
 15  3  1  0
M  END
>  <Hit>  (302) 
Mpro-x0387_0

>  <Receptor>  (302) 
Mpro-x0305_0

>  <SCORE>  (302) 
-10.1511

>  <SCORE.norm>  (302) 
-0.67674100000000004

>  <SCORE.heavy>  (302) 
15

>  <OrigSmiles>  (302) 
C#CC1(O)CCN(Cc2nnc[nH]2)CC1

>  <SuCOS_Score>  (302) 
0.4090450356869284

>  <Max_SuCOS_Score>  (302) 
0

>  <Cum_SuCOS_Score>  (302) 
0

>  <TransFSScore_50nM>  (302) 
0.00060099999999999997

>  <TransFSScore_1uM>  (302) 
0.029734

>  <TransFSScore_10nM>  (302) 
0.0011180000000000001

>  <TransFSScore_200nM>  (302) 
0.072265999999999997

>  <TransFSScore>  (302) 
0.025929750000000001

>  <FeatureSteinScore>  (302) 
0.25398620232304059

>  <XCos_RefMols>  (302) 
x1392_0

>  <XCos_NumHits>  (302) 
1

>  <XCos_Score1>  (302) 
9.3944

>  <XCos_Score2>  (302) 
0.1592

>  <XCos_Score3>  (302) 
0.0169

$$$$
C#CC1(O)CCN(Cc2nnc[nH]2)CC1
     RDKit          3D

 15 16  0  0  0  0  0  0  0  0999 V2000
   10.8519   -5.7161   25.8502 C   0  0  0  0  0  0  0  0  0  0  0  0
    9.7412   -5.4228   26.2205 C   0  0  0  0  0  0  0  0  0  0  0  0
    8.3615   -5.0818   26.6807 C   0  0  0  0  0  0  0  0  0  0  0  0
    8.3373   -5.7037   27.8978 O   0  0  0  0  0  0  0  0  0  0  0  0
    7.3050   -5.6095   25.7148 C   0  0  0  0  0  0  0  0  0  0  0  0
    7.6940   -5.1475   24.3139 C   0  0  0  0  0  0  0  0  0  0  0  0
    8.3124   -3.7961   24.2807 N   0  0  0  0  0  0  0  0  0  0  0  0
    8.3034   -3.1128   22.9841 C   0  0  0  0  0  0  0  0  0  0  0  0
    9.6008   -2.4758   22.6023 C   0  0  0  0  0  0  0  0  0  0  0  0
   10.7573   -2.6780   23.2594 N   0  0  0  0  0  0  0  0  0  0  0  0
   11.6680   -1.9406   22.6490 N   0  0  0  0  0  0  0  0  0  0  0  0
   11.0438   -1.3079   21.6389 C   0  0  0  0  0  0  0  0  0  0  0  0
    9.7342   -1.6164   21.5733 N   0  0  0  0  0  0  0  0  0  0  0  0
    7.8892   -2.9163   25.3941 C   0  0  0  0  0  0  0  0  0  0  0  0
    8.2186   -3.5500   26.7762 C   0  0  0  0  0  0  0  0  0  0  0  0
  1  2  3  0
  2  3  1  0
  3  4  1  0
  3  5  1  0
  5  6  1  0
  6  7  1  0
  7  8  1  0
  7 14  1  0
  8  9  1  0
  9 10  2  0
 10 11  1  0
 11 12  2  0
 12 13  1  0
 13  9  1  0
 14 15  1  0
 15  3  1  0
M  END
>  <Hit>  (303) 
Mpro-x0387_0

>  <Receptor>  (303) 
Mpro-x1249_0

>  <SCORE>  (303) 
-10.161

>  <SCORE.norm>  (303) 
-0.67739799999999994

>  <SCORE.heavy>  (303) 
15

>  <OrigSmiles>  (303) 
C#CC1(O)CCN(Cc2nnc[nH]2)CC1

>  <SuCOS_Score>  (303) 
0.33370811590190297

>  <Max_SuCOS_Score>  (303) 
0

>  <Cum_SuCOS_Score>  (303) 
0

>  <TransFSScore_50nM>  (303) 
0.00030499999999999999

>  <TransFSScore_1uM>  (303) 
0.016178999999999999

>  <TransFSScore_10nM>  (303) 
0.001554

>  <TransFSScore_200nM>  (303) 
0.011301

>  <TransFSScore>  (303) 
0.0073347499999999993

>  <FeatureSteinScore>  (303) 
0.21246824978654966

>  <XCos_RefMols>  (303) 
x1392_0

>  <XCos_NumHits>  (303) 
1

>  <XCos_Score1>  (303) 
9.1293

>  <XCos_Score2>  (303) 
0.0516

>  <XCos_Score3>  (303) 
0.0056

$$$$
C#CC1(O)CCN(Cc2nnc[nH]2)CC1
     RDKit          3D

 15 16  0  0  0  0  0  0  0  0999 V2000
    8.8628   -5.0279   28.7392 C   0  0  0  0  0  0  0  0  0  0  0  0
    9.1063   -5.1690   27.5666 C   0  0  0  0  0  0  0  0  0  0  0  0
    9.4044   -5.3411   26.1333 C   0  0  0  0  0  0  0  0  0  0  0  0
    9.4130   -6.7220   25.8638 O   0  0  0  0  0  0  0  0  0  0  0  0
    8.2847   -4.6853   25.3202 C   0  0  0  0  0  0  0  0  0  0  0  0
    8.7920   -4.3646   23.9306 C   0  0  0  0  0  0  0  0  0  0  0  0
    9.7616   -3.2705   24.0341 N   0  0  0  0  0  0  0  0  0  0  0  0
   10.2533   -2.8502   22.7330 C   0  0  0  0  0  0  0  0  0  0  0  0
   10.3401   -1.3578   22.7379 C   0  0  0  0  0  0  0  0  0  0  0  0
   10.3471   -0.6078   23.8581 N   0  0  0  0  0  0  0  0  0  0  0  0
   10.4480    0.6468   23.4501 N   0  0  0  0  0  0  0  0  0  0  0  0
   10.5020    0.6514   22.1071 C   0  0  0  0  0  0  0  0  0  0  0  0
   10.4359   -0.6016   21.6266 N   0  0  0  0  0  0  0  0  0  0  0  0
   10.7957   -3.3973   25.0856 C   0  0  0  0  0  0  0  0  0  0  0  0
   10.8044   -4.7505   25.8163 C   0  0  0  0  0  0  0  0  0  0  0  0
  1  2  3  0
  2  3  1  0
  3  4  1  0
  3  5  1  0
  5  6  1  0
  6  7  1  0
  7  8  1  0
  7 14  1  0
  8  9  1  0
  9 10  2  0
 10 11  1  0
 11 12  2  0
 12 13  1  0
 13  9  1  0
 14 15  1  0
 15  3  1  0
M  END
>  <Hit>  (304) 
Mpro-x0387_0

>  <Receptor>  (304) 
Mpro-x0387_0

>  <SCORE>  (304) 
-10.8385

>  <SCORE.norm>  (304) 
-0.72256399999999998

>  <SCORE.heavy>  (304) 
15

>  <OrigSmiles>  (304) 
C#CC1(O)CCN(Cc2nnc[nH]2)CC1

>  <SuCOS_Score>  (304) 
0.41312020595184651

>  <Max_SuCOS_Score>  (304) 
0

>  <Cum_SuCOS_Score>  (304) 
0

>  <TransFSScore_50nM>  (304) 
0.00070799999999999997

>  <TransFSScore_1uM>  (304) 
0.020386000000000001

>  <TransFSScore_10nM>  (304) 
0.000386

>  <TransFSScore_200nM>  (304) 
0.018664

>  <TransFSScore>  (304) 
0.010036

>  <FeatureSteinScore>  (304) 
0.33274247545453517

>  <XCos_RefMols>  (304) 
x1392_0

>  <XCos_NumHits>  (304) 
1

>  <XCos_Score1>  (304) 
9.0228

>  <XCos_Score2>  (304) 
0.0510

>  <XCos_Score3>  (304) 
0.0056

$$$$
C#CC1(O)CCN(Cc2nnc[nH]2)CC1
     RDKit          3D

 15 16  0  0  0  0  0  0  0  0999 V2000
    8.8775   -4.9337   28.7333 C   0  0  0  0  0  0  0  0  0  0  0  0
    9.0885   -5.0772   27.5547 C   0  0  0  0  0  0  0  0  0  0  0  0
    9.3466   -5.2521   26.1140 C   0  0  0  0  0  0  0  0  0  0  0  0
    9.2948   -6.6306   25.8372 O   0  0  0  0  0  0  0  0  0  0  0  0
    8.2353   -4.5480   25.3305 C   0  0  0  0  0  0  0  0  0  0  0  0
    8.7229   -4.2388   23.9312 C   0  0  0  0  0  0  0  0  0  0  0  0
    9.7370   -3.1843   24.0180 N   0  0  0  0  0  0  0  0  0  0  0  0
   10.2150   -2.7756   22.7080 C   0  0  0  0  0  0  0  0  0  0  0  0
   10.3339   -1.2855   22.7098 C   0  0  0  0  0  0  0  0  0  0  0  0
   10.3495   -0.5328   23.8281 N   0  0  0  0  0  0  0  0  0  0  0  0
   10.4802    0.7182   23.4177 N   0  0  0  0  0  0  0  0  0  0  0  0
   10.5436    0.7181   22.0751 C   0  0  0  0  0  0  0  0  0  0  0  0
   10.4537   -0.5345   21.5973 N   0  0  0  0  0  0  0  0  0  0  0  0
   10.7890   -3.3580   25.0446 C   0  0  0  0  0  0  0  0  0  0  0  0
   10.7612   -4.7150   25.7678 C   0  0  0  0  0  0  0  0  0  0  0  0
  1  2  3  0
  2  3  1  0
  3  4  1  0
  3  5  1  0
  5  6  1  0
  6  7  1  0
  7  8  1  0
  7 14  1  0
  8  9  1  0
  9 10  2  0
 10 11  1  0
 11 12  2  0
 12 13  1  0
 13  9  1  0
 14 15  1  0
 15  3  1  0
M  END
>  <Hit>  (305) 
Mpro-x0387_0

>  <Receptor>  (305) 
Mpro-x0387_0

>  <SCORE>  (305) 
-10.838699999999999

>  <SCORE.norm>  (305) 
-0.72257899999999997

>  <SCORE.heavy>  (305) 
15

>  <OrigSmiles>  (305) 
C#CC1(O)CCN(Cc2nnc[nH]2)CC1

>  <SuCOS_Score>  (305) 
0.4247225756281916

>  <Max_SuCOS_Score>  (305) 
0

>  <Cum_SuCOS_Score>  (305) 
0

>  <TransFSScore_50nM>  (305) 
0.00068599999999999998

>  <TransFSScore_1uM>  (305) 
0.021344999999999999

>  <TransFSScore_10nM>  (305) 
0.00038000000000000002

>  <TransFSScore_200nM>  (305) 
0.017351999999999999

>  <TransFSScore>  (305) 
0.0099407499999999982

>  <FeatureSteinScore>  (305) 
0.35647467759253021

>  <XCos_RefMols>  (305) 
x1392_0

>  <XCos_NumHits>  (305) 
1

>  <XCos_Score1>  (305) 
9.1510

>  <XCos_Score2>  (305) 
0.0517

>  <XCos_Score3>  (305) 
0.0056

$$$$
C#CC1(O)CCN(Cc2nnc[nH]2)CC1
     RDKit          3D

 15 16  0  0  0  0  0  0  0  0999 V2000
    8.8758   -5.0200   28.6948 C   0  0  0  0  0  0  0  0  0  0  0  0
    9.0821   -5.1516   27.5140 C   0  0  0  0  0  0  0  0  0  0  0  0
    9.3344   -5.3131   26.0707 C   0  0  0  0  0  0  0  0  0  0  0  0
    9.3544   -6.6926   25.7945 O   0  0  0  0  0  0  0  0  0  0  0  0
    8.1786   -4.6707   25.2987 C   0  0  0  0  0  0  0  0  0  0  0  0
    8.6342   -4.3365   23.8944 C   0  0  0  0  0  0  0  0  0  0  0  0
    9.5906   -3.2286   23.9706 N   0  0  0  0  0  0  0  0  0  0  0  0
   10.0321   -2.7954   22.6557 C   0  0  0  0  0  0  0  0  0  0  0  0
   10.1769   -1.3080   22.6897 C   0  0  0  0  0  0  0  0  0  0  0  0
   10.1162   -0.5713   23.8171 N   0  0  0  0  0  0  0  0  0  0  0  0
   10.3016    0.6827   23.4375 N   0  0  0  0  0  0  0  0  0  0  0  0
   10.4723    0.6998   22.1044 C   0  0  0  0  0  0  0  0  0  0  0  0
   10.3988   -0.5441   21.6020 N   0  0  0  0  0  0  0  0  0  0  0  0
   10.6610   -3.3445   24.9862 C   0  0  0  0  0  0  0  0  0  0  0  0
   10.7142   -4.7005   25.7098 C   0  0  0  0  0  0  0  0  0  0  0  0
  1  2  3  0
  2  3  1  0
  3  4  1  0
  3  5  1  0
  5  6  1  0
  6  7  1  0
  7  8  1  0
  7 14  1  0
  8  9  1  0
  9 10  2  0
 10 11  1  0
 11 12  2  0
 12 13  1  0
 13  9  1  0
 14 15  1  0
 15  3  1  0
M  END
>  <Hit>  (306) 
Mpro-x0387_0

>  <Receptor>  (306) 
Mpro-x0387_0

>  <SCORE>  (306) 
-10.8628

>  <SCORE.norm>  (306) 
-0.72418499999999997

>  <SCORE.heavy>  (306) 
15

>  <OrigSmiles>  (306) 
C#CC1(O)CCN(Cc2nnc[nH]2)CC1

>  <SuCOS_Score>  (306) 
0.40637581621433838

>  <Max_SuCOS_Score>  (306) 
0

>  <Cum_SuCOS_Score>  (306) 
0

>  <TransFSScore_50nM>  (306) 
0.00073499999999999998

>  <TransFSScore_1uM>  (306) 
0.018776999999999999

>  <TransFSScore_10nM>  (306) 
0.00038400000000000001

>  <TransFSScore_200nM>  (306) 
0.017323000000000002

>  <TransFSScore>  (306) 
0.0093047500000000005

>  <FeatureSteinScore>  (306) 
0.35793741777545746

>  <XCos_RefMols>  (306) 
x1392_0

>  <XCos_NumHits>  (306) 
1

>  <XCos_Score1>  (306) 
9.5226

>  <XCos_Score2>  (306) 
0.0538

>  <XCos_Score3>  (306) 
0.0056

$$$$
C#CC1(O)CCN(Cc2nnc[nH]2)CC1
     RDKit          3D

 15 16  0  0  0  0  0  0  0  0999 V2000
    9.7796   -3.3756   28.3912 C   0  0  0  0  0  0  0  0  0  0  0  0
    9.4019   -4.2649   27.6679 C   0  0  0  0  0  0  0  0  0  0  0  0
    8.9367   -5.3803   26.7896 C   0  0  0  0  0  0  0  0  0  0  0  0
    8.4124   -6.2350   27.7187 O   0  0  0  0  0  0  0  0  0  0  0  0
   10.0922   -5.9869   25.9992 C   0  0  0  0  0  0  0  0  0  0  0  0
   10.8319   -4.8403   25.3171 C   0  0  0  0  0  0  0  0  0  0  0  0
    9.9401   -3.7425   24.8593 N   0  0  0  0  0  0  0  0  0  0  0  0
   10.4881   -2.8493   23.8346 C   0  0  0  0  0  0  0  0  0  0  0  0
   11.1763   -1.6333   24.3660 C   0  0  0  0  0  0  0  0  0  0  0  0
   11.9838   -0.8473   23.6309 N   0  0  0  0  0  0  0  0  0  0  0  0
   12.4161    0.1043   24.4389 N   0  0  0  0  0  0  0  0  0  0  0  0
   11.8636   -0.1268   25.6437 C   0  0  0  0  0  0  0  0  0  0  0  0
   11.0728   -1.2174   25.6433 N   0  0  0  0  0  0  0  0  0  0  0  0
    8.5581   -4.1801   24.5571 C   0  0  0  0  0  0  0  0  0  0  0  0
    7.8887   -4.8443   25.7946 C   0  0  0  0  0  0  0  0  0  0  0  0
  1  2  3  0
  2  3  1  0
  3  4  1  0
  3  5  1  0
  5  6  1  0
  6  7  1  0
  7  8  1  0
  7 14  1  0
  8  9  1  0
  9 10  2  0
 10 11  1  0
 11 12  2  0
 12 13  1  0
 13  9  1  0
 14 15  1  0
 15  3  1  0
M  END
>  <Hit>  (307) 
Mpro-x0387_0

>  <Receptor>  (307) 
Mpro-x0387_0

>  <SCORE>  (307) 
-10.913399999999999

>  <SCORE.norm>  (307) 
-0.72755700000000001

>  <SCORE.heavy>  (307) 
15

>  <OrigSmiles>  (307) 
C#CC1(O)CCN(Cc2nnc[nH]2)CC1

>  <SuCOS_Score>  (307) 
0.41698403673938933

>  <Max_SuCOS_Score>  (307) 
0

>  <Cum_SuCOS_Score>  (307) 
0

>  <TransFSScore_50nM>  (307) 
0.00035799999999999997

>  <TransFSScore_1uM>  (307) 
0.024317999999999999

>  <TransFSScore_10nM>  (307) 
0.0011490000000000001

>  <TransFSScore_200nM>  (307) 
0.026727000000000001

>  <TransFSScore>  (307) 
0.013138

>  <FeatureSteinScore>  (307) 
0.30058521681310962

>  <XCos_RefMols>  (307) 
x0749_0,x0354_0

>  <XCos_NumHits>  (307) 
2

>  <XCos_Score1>  (307) 
7.9955

>  <XCos_Score2>  (307) 
0.0903

>  <XCos_Score3>  (307) 
0.0113

$$$$
C#CC1(O)CCN(Cc2nnc[nH]2)CC1
     RDKit          3D

 15 16  0  0  0  0  0  0  0  0999 V2000
    9.8316   -3.4270   28.4378 C   0  0  0  0  0  0  0  0  0  0  0  0
    9.4189   -4.2805   27.6907 C   0  0  0  0  0  0  0  0  0  0  0  0
    8.9285   -5.3377   26.7562 C   0  0  0  0  0  0  0  0  0  0  0  0
    8.3415   -6.2037   27.6359 O   0  0  0  0  0  0  0  0  0  0  0  0
   10.0769   -5.9647   25.9712 C   0  0  0  0  0  0  0  0  0  0  0  0
   10.8852   -4.8270   25.3554 C   0  0  0  0  0  0  0  0  0  0  0  0
   10.0561   -3.6723   24.9204 N   0  0  0  0  0  0  0  0  0  0  0  0
   10.6711   -2.7651   23.9472 C   0  0  0  0  0  0  0  0  0  0  0  0
   11.2782   -1.5324   24.5359 C   0  0  0  0  0  0  0  0  0  0  0  0
   11.1473   -1.1751   25.8264 N   0  0  0  0  0  0  0  0  0  0  0  0
   11.7967   -0.0330   25.9659 N   0  0  0  0  0  0  0  0  0  0  0  0
   12.3041    0.2765   24.7588 C   0  0  0  0  0  0  0  0  0  0  0  0
   11.9990   -0.6443   23.8241 N   0  0  0  0  0  0  0  0  0  0  0  0
    8.6647   -4.0340   24.5656 C   0  0  0  0  0  0  0  0  0  0  0  0
    7.9330   -4.7154   25.7575 C   0  0  0  0  0  0  0  0  0  0  0  0
  1  2  3  0
  2  3  1  0
  3  4  1  0
  3  5  1  0
  5  6  1  0
  6  7  1  0
  7  8  1  0
  7 14  1  0
  8  9  1  0
  9 10  2  0
 10 11  1  0
 11 12  2  0
 12 13  1  0
 13  9  1  0
 14 15  1  0
 15  3  1  0
M  END
>  <Hit>  (308) 
Mpro-x0387_0

>  <Receptor>  (308) 
Mpro-x0387_0

>  <SCORE>  (308) 
-11.7234

>  <SCORE.norm>  (308) 
-0.78156099999999995

>  <SCORE.heavy>  (308) 
15

>  <OrigSmiles>  (308) 
C#CC1(O)CCN(Cc2nnc[nH]2)CC1

>  <SuCOS_Score>  (308) 
0.41067425807534702

>  <Max_SuCOS_Score>  (308) 
0

>  <Cum_SuCOS_Score>  (308) 
0

>  <TransFSScore_50nM>  (308) 
0.0024489999999999998

>  <TransFSScore_1uM>  (308) 
0.017423000000000001

>  <TransFSScore_10nM>  (308) 
0.0036289999999999998

>  <TransFSScore_200nM>  (308) 
0.041813999999999997

>  <TransFSScore>  (308) 
0.01632875

>  <FeatureSteinScore>  (308) 
0.18238846428135397

>  <XCos_RefMols>  (308) 
x0749_0

>  <XCos_NumHits>  (308) 
1

>  <XCos_Score1>  (308) 
7.7938

>  <XCos_Score2>  (308) 
0.0440

>  <XCos_Score3>  (308) 
0.0056

$$$$
C#CC1(O)CCN(Cc2nnn[nH]2)CC1
     RDKit          3D

 15 16  0  0  0  0  0  0  0  0999 V2000
    7.5756   -6.4260   28.0186 C   0  0  0  0  0  0  0  0  0  0  0  0
    8.1229   -6.0648   27.0066 C   0  0  0  0  0  0  0  0  0  0  0  0
    8.7949   -5.6213   25.7644 C   0  0  0  0  0  0  0  0  0  0  0  0
    9.5584   -6.6897   25.2609 O   0  0  0  0  0  0  0  0  0  0  0  0
    7.7102   -5.2887   24.7352 C   0  0  0  0  0  0  0  0  0  0  0  0
    8.2633   -4.5499   23.5149 C   0  0  0  0  0  0  0  0  0  0  0  0
    9.1698   -3.4248   23.8653 N   0  0  0  0  0  0  0  0  0  0  0  0
    9.1678   -2.2274   23.0005 C   0  0  0  0  0  0  0  0  0  0  0  0
   10.4976   -1.5796   22.7913 C   0  0  0  0  0  0  0  0  0  0  0  0
   11.1594   -0.8752   23.7347 N   0  0  0  0  0  0  0  0  0  0  0  0
   12.2486   -0.4436   23.1158 N   0  0  0  0  0  0  0  0  0  0  0  0
   12.2551   -0.8513   21.8588 N   0  0  0  0  0  0  0  0  0  0  0  0
   11.1692   -1.5629   21.6244 N   0  0  0  0  0  0  0  0  0  0  0  0
    9.2786   -3.1263   25.3028 C   0  0  0  0  0  0  0  0  0  0  0  0
    9.7058   -4.3967   26.0598 C   0  0  0  0  0  0  0  0  0  0  0  0
  1  2  3  0
  2  3  1  0
  3  4  1  0
  3  5  1  0
  5  6  1  0
  6  7  1  0
  7  8  1  0
  7 14  1  0
  8  9  1  0
  9 10  2  0
 10 11  1  0
 11 12  2  0
 12 13  1  0
 13  9  1  0
 14 15  1  0
 15  3  1  0
M  END
>  <Hit>  (309) 
Mpro-x0387_0

>  <Receptor>  (309) 
Mpro-x0874_0

>  <SCORE>  (309) 
-10.809799999999999

>  <SCORE.norm>  (309) 
-0.72065299999999999

>  <SCORE.heavy>  (309) 
15

>  <OrigSmiles>  (309) 
C#CC1(O)CCN(Cc2nnn[nH]2)CC1

>  <SuCOS_Score>  (309) 
0.40681748925051386

>  <Max_SuCOS_Score>  (309) 
0

>  <Cum_SuCOS_Score>  (309) 
0

>  <TransFSScore_50nM>  (309) 
0.0060299999999999998

>  <TransFSScore_1uM>  (309) 
0.014257000000000001

>  <TransFSScore_10nM>  (309) 
0.0061609999999999998

>  <TransFSScore_200nM>  (309) 
0.011782000000000001

>  <TransFSScore>  (309) 
0.0095575

>  <FeatureSteinScore>  (309) 
0.2904906775351957

>  <XCos_RefMols>  (309) 
x1392_0,x1382_0

>  <XCos_NumHits>  (309) 
2

>  <XCos_Score1>  (309) 
10.8366

>  <XCos_Score2>  (309) 
0.1224

>  <XCos_Score3>  (309) 
0.0113

$$$$
C#CC1(O)CCN(Cc2nnn[nH]2)CC1
     RDKit          3D

 15 16  0  0  0  0  0  0  0  0999 V2000
    7.5564   -6.4242   28.0146 C   0  0  0  0  0  0  0  0  0  0  0  0
    8.1032   -6.0540   27.0057 C   0  0  0  0  0  0  0  0  0  0  0  0
    8.7744   -5.5997   25.7668 C   0  0  0  0  0  0  0  0  0  0  0  0
    9.5285   -6.6670   25.2474 O   0  0  0  0  0  0  0  0  0  0  0  0
    7.6888   -5.2464   24.7456 C   0  0  0  0  0  0  0  0  0  0  0  0
    8.2432   -4.4962   23.5329 C   0  0  0  0  0  0  0  0  0  0  0  0
    9.1588   -3.3821   23.8943 N   0  0  0  0  0  0  0  0  0  0  0  0
    9.1626   -2.1740   23.0446 C   0  0  0  0  0  0  0  0  0  0  0  0
   10.4987   -1.5426   22.8256 C   0  0  0  0  0  0  0  0  0  0  0  0
   11.1865   -0.8661   23.7708 N   0  0  0  0  0  0  0  0  0  0  0  0
   12.2721   -0.4395   23.1422 N   0  0  0  0  0  0  0  0  0  0  0  0
   12.2520   -0.8237   21.8780 N   0  0  0  0  0  0  0  0  0  0  0  0
   11.1515   -1.5142   21.6484 N   0  0  0  0  0  0  0  0  0  0  0  0
    9.2745   -3.1025   25.3351 C   0  0  0  0  0  0  0  0  0  0  0  0
    9.6950   -4.3854   26.0746 C   0  0  0  0  0  0  0  0  0  0  0  0
  1  2  3  0
  2  3  1  0
  3  4  1  0
  3  5  1  0
  5  6  1  0
  6  7  1  0
  7  8  1  0
  7 14  1  0
  8  9  1  0
  9 10  2  0
 10 11  1  0
 11 12  2  0
 12 13  1  0
 13  9  1  0
 14 15  1  0
 15  3  1  0
M  END
>  <Hit>  (310) 
Mpro-x0387_0

>  <Receptor>  (310) 
Mpro-x0874_0

>  <SCORE>  (310) 
-10.8314

>  <SCORE.norm>  (310) 
-0.72209299999999998

>  <SCORE.heavy>  (310) 
15

>  <OrigSmiles>  (310) 
C#CC1(O)CCN(Cc2nnn[nH]2)CC1

>  <SuCOS_Score>  (310) 
0.41271594992012284

>  <Max_SuCOS_Score>  (310) 
0

>  <Cum_SuCOS_Score>  (310) 
0

>  <TransFSScore_50nM>  (310) 
0.0058009999999999997

>  <TransFSScore_1uM>  (310) 
0.014572999999999999

>  <TransFSScore_10nM>  (310) 
0.0062620000000000002

>  <TransFSScore_200nM>  (310) 
0.011617000000000001

>  <TransFSScore>  (310) 
0.0095632500000000006

>  <FeatureSteinScore>  (310) 
0.30417517723812443

>  <XCos_RefMols>  (310) 
x0708_0,x1382_0

>  <XCos_NumHits>  (310) 
2

>  <XCos_Score1>  (310) 
10.8270

>  <XCos_Score2>  (310) 
0.1835

>  <XCos_Score3>  (310) 
0.0169

$$$$
C#CC1(O)CCN(Cc2nnn[nH]2)CC1
     RDKit          3D

 15 16  0  0  0  0  0  0  0  0999 V2000
    7.4990   -6.4103   27.9983 C   0  0  0  0  0  0  0  0  0  0  0  0
    8.0570   -6.0523   26.9911 C   0  0  0  0  0  0  0  0  0  0  0  0
    8.7424   -5.6129   25.7547 C   0  0  0  0  0  0  0  0  0  0  0  0
    9.4987   -6.6877   25.2543 O   0  0  0  0  0  0  0  0  0  0  0  0
    7.6685   -5.2671   24.7186 C   0  0  0  0  0  0  0  0  0  0  0  0
    8.2377   -4.5313   23.5039 C   0  0  0  0  0  0  0  0  0  0  0  0
    9.1529   -3.4161   23.8632 N   0  0  0  0  0  0  0  0  0  0  0  0
    9.1691   -2.2169   23.0012 C   0  0  0  0  0  0  0  0  0  0  0  0
   10.5084   -1.5881   22.7944 C   0  0  0  0  0  0  0  0  0  0  0  0
   11.1786   -0.8935   23.7392 N   0  0  0  0  0  0  0  0  0  0  0  0
   12.2749   -0.4773   23.1223 N   0  0  0  0  0  0  0  0  0  0  0  0
   12.2777   -0.8848   21.8652 N   0  0  0  0  0  0  0  0  0  0  0  0
   11.1821   -1.5806   21.6287 N   0  0  0  0  0  0  0  0  0  0  0  0
    9.2544   -3.1218   25.3022 C   0  0  0  0  0  0  0  0  0  0  0  0
    9.6634   -4.3981   26.0593 C   0  0  0  0  0  0  0  0  0  0  0  0
  1  2  3  0
  2  3  1  0
  3  4  1  0
  3  5  1  0
  5  6  1  0
  6  7  1  0
  7  8  1  0
  7 14  1  0
  8  9  1  0
  9 10  2  0
 10 11  1  0
 11 12  2  0
 12 13  1  0
 13  9  1  0
 14 15  1  0
 15  3  1  0
M  END
>  <Hit>  (311) 
Mpro-x0387_0

>  <Receptor>  (311) 
Mpro-x0874_0

>  <SCORE>  (311) 
-10.8423

>  <SCORE.norm>  (311) 
-0.72282100000000005

>  <SCORE.heavy>  (311) 
15

>  <OrigSmiles>  (311) 
C#CC1(O)CCN(Cc2nnn[nH]2)CC1

>  <SuCOS_Score>  (311) 
0.40695758010453348

>  <Max_SuCOS_Score>  (311) 
0

>  <Cum_SuCOS_Score>  (311) 
0

>  <TransFSScore_50nM>  (311) 
0.0058529999999999997

>  <TransFSScore_1uM>  (311) 
0.014789999999999999

>  <TransFSScore_10nM>  (311) 
0.0059449999999999998

>  <TransFSScore_200nM>  (311) 
0.011993999999999999

>  <TransFSScore>  (311) 
0.0096454999999999996

>  <FeatureSteinScore>  (311) 
0.29267959537405247

>  <XCos_RefMols>  (311) 
x1392_0,x1382_0

>  <XCos_NumHits>  (311) 
2

>  <XCos_Score1>  (311) 
10.7718

>  <XCos_Score2>  (311) 
0.1217

>  <XCos_Score3>  (311) 
0.0113

$$$$
C#CC1(O)CCN(Cc2nnn[nH]2)CC1
     RDKit          3D

 15 16  0  0  0  0  0  0  0  0999 V2000
    7.5224   -6.3776   27.9846 C   0  0  0  0  0  0  0  0  0  0  0  0
    8.0818   -6.0234   26.9768 C   0  0  0  0  0  0  0  0  0  0  0  0
    8.7687   -5.5883   25.7397 C   0  0  0  0  0  0  0  0  0  0  0  0
    9.5257   -6.6648   25.2440 O   0  0  0  0  0  0  0  0  0  0  0  0
    7.6962   -5.2462   24.7010 C   0  0  0  0  0  0  0  0  0  0  0  0
    8.2669   -4.5146   23.4845 C   0  0  0  0  0  0  0  0  0  0  0  0
    9.1816   -3.3981   23.8411 N   0  0  0  0  0  0  0  0  0  0  0  0
    9.1989   -2.2020   22.9749 C   0  0  0  0  0  0  0  0  0  0  0  0
   10.5377   -1.5713   22.7710 C   0  0  0  0  0  0  0  0  0  0  0  0
   11.2110   -0.8875   23.7214 N   0  0  0  0  0  0  0  0  0  0  0  0
   12.3057   -0.4649   23.1058 N   0  0  0  0  0  0  0  0  0  0  0  0
   12.3045   -0.8584   21.8443 N   0  0  0  0  0  0  0  0  0  0  0  0
   11.2079   -1.5512   21.6035 N   0  0  0  0  0  0  0  0  0  0  0  0
    9.2812   -3.0988   25.2792 C   0  0  0  0  0  0  0  0  0  0  0  0
    9.6893   -4.3724   26.0413 C   0  0  0  0  0  0  0  0  0  0  0  0
  1  2  3  0
  2  3  1  0
  3  4  1  0
  3  5  1  0
  5  6  1  0
  6  7  1  0
  7  8  1  0
  7 14  1  0
  8  9  1  0
  9 10  2  0
 10 11  1  0
 11 12  2  0
 12 13  1  0
 13  9  1  0
 14 15  1  0
 15  3  1  0
M  END
>  <Hit>  (312) 
Mpro-x0387_0

>  <Receptor>  (312) 
Mpro-x0874_0

>  <SCORE>  (312) 
-10.8949

>  <SCORE.norm>  (312) 
-0.72632399999999997

>  <SCORE.heavy>  (312) 
15

>  <OrigSmiles>  (312) 
C#CC1(O)CCN(Cc2nnn[nH]2)CC1

>  <SuCOS_Score>  (312) 
0.40912539055508224

>  <Max_SuCOS_Score>  (312) 
0

>  <Cum_SuCOS_Score>  (312) 
0

>  <TransFSScore_50nM>  (312) 
0.0059350000000000002

>  <TransFSScore_1uM>  (312) 
0.014723

>  <TransFSScore_10nM>  (312) 
0.0061289999999999999

>  <TransFSScore_200nM>  (312) 
0.012087000000000001

>  <TransFSScore>  (312) 
0.0097184999999999997

>  <FeatureSteinScore>  (312) 
0.29898969099648737

>  <XCos_RefMols>  (312) 
x1392_0,x1382_0

>  <XCos_NumHits>  (312) 
2

>  <XCos_Score1>  (312) 
10.8366

>  <XCos_Score2>  (312) 
0.1224

>  <XCos_Score3>  (312) 
0.0113

$$$$
C#CC1(O)CCN(Cc2nnn[nH]2)CC1
     RDKit          3D

 15 16  0  0  0  0  0  0  0  0999 V2000
    7.5578   -6.3473   28.0154 C   0  0  0  0  0  0  0  0  0  0  0  0
    8.1042   -6.0036   26.9969 C   0  0  0  0  0  0  0  0  0  0  0  0
    8.7752   -5.5813   25.7466 C   0  0  0  0  0  0  0  0  0  0  0  0
    9.5147   -6.6673   25.2450 O   0  0  0  0  0  0  0  0  0  0  0  0
    7.6893   -5.2353   24.7232 C   0  0  0  0  0  0  0  0  0  0  0  0
    8.2470   -4.5154   23.4938 C   0  0  0  0  0  0  0  0  0  0  0  0
    9.1771   -3.4053   23.8296 N   0  0  0  0  0  0  0  0  0  0  0  0
    9.1912   -2.2140   22.9565 C   0  0  0  0  0  0  0  0  0  0  0  0
   10.5266   -1.5742   22.7583 C   0  0  0  0  0  0  0  0  0  0  0  0
   11.1968   -0.8964   23.7151 N   0  0  0  0  0  0  0  0  0  0  0  0
   12.2888   -0.4618   23.1031 N   0  0  0  0  0  0  0  0  0  0  0  0
   12.2890   -0.8426   21.8378 N   0  0  0  0  0  0  0  0  0  0  0  0
   11.1960   -1.5389   21.5906 N   0  0  0  0  0  0  0  0  0  0  0  0
    9.3023   -3.0990   25.2642 C   0  0  0  0  0  0  0  0  0  0  0  0
    9.7112   -4.3721   26.0268 C   0  0  0  0  0  0  0  0  0  0  0  0
  1  2  3  0
  2  3  1  0
  3  4  1  0
  3  5  1  0
  5  6  1  0
  6  7  1  0
  7  8  1  0
  7 14  1  0
  8  9  1  0
  9 10  2  0
 10 11  1  0
 11 12  2  0
 12 13  1  0
 13  9  1  0
 14 15  1  0
 15  3  1  0
M  END
>  <Hit>  (313) 
Mpro-x0387_0

>  <Receptor>  (313) 
Mpro-x0874_0

>  <SCORE>  (313) 
-11.0075

>  <SCORE.norm>  (313) 
-0.73383600000000004

>  <SCORE.heavy>  (313) 
15

>  <OrigSmiles>  (313) 
C#CC1(O)CCN(Cc2nnn[nH]2)CC1

>  <SuCOS_Score>  (313) 
0.40738893429041129

>  <Max_SuCOS_Score>  (313) 
0

>  <Cum_SuCOS_Score>  (313) 
0

>  <TransFSScore_50nM>  (313) 
0.005718

>  <TransFSScore_1uM>  (313) 
0.014525

>  <TransFSScore_10nM>  (313) 
0.0061370000000000001

>  <TransFSScore_200nM>  (313) 
0.011982

>  <TransFSScore>  (313) 
0.0095905000000000001

>  <FeatureSteinScore>  (313) 
0.298111119720119

>  <XCos_RefMols>  (313) 
x1392_0

>  <XCos_NumHits>  (313) 
1

>  <XCos_Score1>  (313) 
10.9204

>  <XCos_Score2>  (313) 
0.1234

>  <XCos_Score3>  (313) 
0.0113

$$$$
C#CC1(O)CCN(Cc2nnn[nH]2)CC1
     RDKit          3D

 15 16  0  0  0  0  0  0  0  0999 V2000
    7.6860   -6.3577   28.2778 C   0  0  0  0  0  0  0  0  0  0  0  0
    8.2304   -6.0472   27.2477 C   0  0  0  0  0  0  0  0  0  0  0  0
    8.8987   -5.6656   25.9830 C   0  0  0  0  0  0  0  0  0  0  0  0
    9.5941   -6.7830   25.4877 O   0  0  0  0  0  0  0  0  0  0  0  0
    7.8117   -5.2969   24.9687 C   0  0  0  0  0  0  0  0  0  0  0  0
    8.3772   -4.6138   23.7220 C   0  0  0  0  0  0  0  0  0  0  0  0
    9.3489   -3.5315   24.0298 N   0  0  0  0  0  0  0  0  0  0  0  0
    9.3919   -2.3537   23.1397 C   0  0  0  0  0  0  0  0  0  0  0  0
   10.7384   -1.7341   22.9527 C   0  0  0  0  0  0  0  0  0  0  0  0
   11.4614   -1.1680   23.9431 N   0  0  0  0  0  0  0  0  0  0  0  0
   12.5443   -0.7070   23.3344 N   0  0  0  0  0  0  0  0  0  0  0  0
   12.4894   -0.9664   22.0398 N   0  0  0  0  0  0  0  0  0  0  0  0
   11.3679   -1.6066   21.7694 N   0  0  0  0  0  0  0  0  0  0  0  0
    9.5034   -3.2097   25.4582 C   0  0  0  0  0  0  0  0  0  0  0  0
    9.8789   -4.4852   26.2338 C   0  0  0  0  0  0  0  0  0  0  0  0
  1  2  3  0
  2  3  1  0
  3  4  1  0
  3  5  1  0
  5  6  1  0
  6  7  1  0
  7  8  1  0
  7 14  1  0
  8  9  1  0
  9 10  2  0
 10 11  1  0
 11 12  2  0
 12 13  1  0
 13  9  1  0
 14 15  1  0
 15  3  1  0
M  END
>  <Hit>  (314) 
Mpro-x0387_0

>  <Receptor>  (314) 
Mpro-x0305_0

>  <SCORE>  (314) 
-11.617699999999999

>  <SCORE.norm>  (314) 
-0.77451099999999995

>  <SCORE.heavy>  (314) 
15

>  <OrigSmiles>  (314) 
C#CC1(O)CCN(Cc2nnn[nH]2)CC1

>  <SuCOS_Score>  (314) 
0.45289833658903622

>  <Max_SuCOS_Score>  (314) 
0

>  <Cum_SuCOS_Score>  (314) 
0

>  <TransFSScore_50nM>  (314) 
0.0057759999999999999

>  <TransFSScore_1uM>  (314) 
0.017305999999999998

>  <TransFSScore_10nM>  (314) 
0.009502

>  <TransFSScore_200nM>  (314) 
0.020773

>  <TransFSScore>  (314) 
0.01333925

>  <FeatureSteinScore>  (314) 
0.31897989402953836

>  <XCos_RefMols>  (314) 
x1392_0,x1385_0

>  <XCos_NumHits>  (314) 
2

>  <XCos_Score1>  (314) 
10.7665

>  <XCos_Score2>  (314) 
0.2433

>  <XCos_Score3>  (314) 
0.0226

$$$$
C#CC1(O)CCN(Cc2nnn[nH]2)CC1
     RDKit          3D

 15 16  0  0  0  0  0  0  0  0999 V2000
    7.6587   -6.2870   28.0627 C   0  0  0  0  0  0  0  0  0  0  0  0
    8.1729   -5.9856   27.0145 C   0  0  0  0  0  0  0  0  0  0  0  0
    8.8050   -5.6161   25.7276 C   0  0  0  0  0  0  0  0  0  0  0  0
    9.5474   -6.7154   25.2569 O   0  0  0  0  0  0  0  0  0  0  0  0
    7.7001   -5.2753   24.7172 C   0  0  0  0  0  0  0  0  0  0  0  0
    8.2499   -4.6092   23.4553 C   0  0  0  0  0  0  0  0  0  0  0  0
    9.2026   -3.5034   23.7386 N   0  0  0  0  0  0  0  0  0  0  0  0
    9.2137   -2.3368   22.8328 C   0  0  0  0  0  0  0  0  0  0  0  0
   10.5173   -1.6149   22.7242 C   0  0  0  0  0  0  0  0  0  0  0  0
   11.1107   -0.9534   23.7389 N   0  0  0  0  0  0  0  0  0  0  0  0
   12.2048   -0.4223   23.2092 N   0  0  0  0  0  0  0  0  0  0  0  0
   12.2699   -0.7417   21.9269 N   0  0  0  0  0  0  0  0  0  0  0  0
   11.2302   -1.4818   21.5935 N   0  0  0  0  0  0  0  0  0  0  0  0
    9.3645   -3.1584   25.1610 C   0  0  0  0  0  0  0  0  0  0  0  0
    9.7652   -4.4171   25.9531 C   0  0  0  0  0  0  0  0  0  0  0  0
  1  2  3  0
  2  3  1  0
  3  4  1  0
  3  5  1  0
  5  6  1  0
  6  7  1  0
  7  8  1  0
  7 14  1  0
  8  9  1  0
  9 10  2  0
 10 11  1  0
 11 12  2  0
 12 13  1  0
 13  9  1  0
 14 15  1  0
 15  3  1  0
M  END
>  <Hit>  (315) 
Mpro-x0387_0

>  <Receptor>  (315) 
Mpro-x1249_0

>  <SCORE>  (315) 
-11.6335

>  <SCORE.norm>  (315) 
-0.77556999999999998

>  <SCORE.heavy>  (315) 
15

>  <OrigSmiles>  (315) 
C#CC1(O)CCN(Cc2nnn[nH]2)CC1

>  <SuCOS_Score>  (315) 
0.39713992477100851

>  <Max_SuCOS_Score>  (315) 
0

>  <Cum_SuCOS_Score>  (315) 
0

>  <TransFSScore_50nM>  (315) 
0.0053569999999999998

>  <TransFSScore_1uM>  (315) 
0.012779

>  <TransFSScore_10nM>  (315) 
0.0059220000000000002

>  <TransFSScore_200nM>  (315) 
0.012761

>  <TransFSScore>  (315) 
0.0092047499999999994

>  <FeatureSteinScore>  (315) 
0.28011134556988337

>  <XCos_RefMols>  (315) 
x1392_0,x1385_0,x1382_0

>  <XCos_NumHits>  (315) 
3

>  <XCos_Score1>  (315) 
11.0877

>  <XCos_Score2>  (315) 
0.1253

>  <XCos_Score3>  (315) 
0.0113

$$$$
C#CC1(O)CCN(Cc2nnn[nH]2)CC1
     RDKit          3D

 15 16  0  0  0  0  0  0  0  0999 V2000
    7.6038   -6.4719   28.0055 C   0  0  0  0  0  0  0  0  0  0  0  0
    8.1425   -6.1022   26.9920 C   0  0  0  0  0  0  0  0  0  0  0  0
    8.8037   -5.6484   25.7476 C   0  0  0  0  0  0  0  0  0  0  0  0
    9.5540   -6.7158   25.2228 O   0  0  0  0  0  0  0  0  0  0  0  0
    7.7099   -5.2959   24.7349 C   0  0  0  0  0  0  0  0  0  0  0  0
    8.2544   -4.5463   23.5173 C   0  0  0  0  0  0  0  0  0  0  0  0
    9.1726   -3.4317   23.8708 N   0  0  0  0  0  0  0  0  0  0  0  0
    9.1693   -2.2240   23.0206 C   0  0  0  0  0  0  0  0  0  0  0  0
   10.4837   -1.5276   22.8826 C   0  0  0  0  0  0  0  0  0  0  0  0
   11.0609   -0.7887   23.8547 N   0  0  0  0  0  0  0  0  0  0  0  0
   12.1680   -0.3218   23.2962 N   0  0  0  0  0  0  0  0  0  0  0  0
   12.2650   -0.7418   22.0471 N   0  0  0  0  0  0  0  0  0  0  0  0
   11.2227   -1.4970   21.7575 N   0  0  0  0  0  0  0  0  0  0  0  0
    9.2996   -3.1513   25.3106 C   0  0  0  0  0  0  0  0  0  0  0  0
    9.7264   -4.4337   26.0474 C   0  0  0  0  0  0  0  0  0  0  0  0
  1  2  3  0
  2  3  1  0
  3  4  1  0
  3  5  1  0
  5  6  1  0
  6  7  1  0
  7  8  1  0
  7 14  1  0
  8  9  1  0
  9 10  2  0
 10 11  1  0
 11 12  2  0
 12 13  1  0
 13  9  1  0
 14 15  1  0
 15  3  1  0
M  END
>  <Hit>  (316) 
Mpro-x0387_0

>  <Receptor>  (316) 
Mpro-x1249_0

>  <SCORE>  (316) 
-11.648

>  <SCORE.norm>  (316) 
-0.776536

>  <SCORE.heavy>  (316) 
15

>  <OrigSmiles>  (316) 
C#CC1(O)CCN(Cc2nnn[nH]2)CC1

>  <SuCOS_Score>  (316) 
0.41316191590047685

>  <Max_SuCOS_Score>  (316) 
0

>  <Cum_SuCOS_Score>  (316) 
0

>  <TransFSScore_50nM>  (316) 
0.0057359999999999998

>  <TransFSScore_1uM>  (316) 
0.011985000000000001

>  <TransFSScore_10nM>  (316) 
0.0058250000000000003

>  <TransFSScore_200nM>  (316) 
0.013812

>  <TransFSScore>  (316) 
0.0093395000000000006

>  <FeatureSteinScore>  (316) 
0.29451821861891631

>  <XCos_RefMols>  (316) 
x1392_0,x1382_0

>  <XCos_NumHits>  (316) 
2

>  <XCos_Score1>  (316) 
10.8890

>  <XCos_Score2>  (316) 
0.1846

>  <XCos_Score3>  (316) 
0.0169

$$$$
C#CC1(O)CCN(Cc2nnn[nH]2)CC1
     RDKit          3D

 15 16  0  0  0  0  0  0  0  0999 V2000
    7.6866   -6.3398   28.3170 C   0  0  0  0  0  0  0  0  0  0  0  0
    8.2236   -6.0281   27.2833 C   0  0  0  0  0  0  0  0  0  0  0  0
    8.8827   -5.6451   26.0143 C   0  0  0  0  0  0  0  0  0  0  0  0
    9.5758   -6.7616   25.5135 O   0  0  0  0  0  0  0  0  0  0  0  0
    7.7884   -5.2770   25.0077 C   0  0  0  0  0  0  0  0  0  0  0  0
    8.3446   -4.5926   23.7575 C   0  0  0  0  0  0  0  0  0  0  0  0
    9.3173   -3.5095   24.0592 N   0  0  0  0  0  0  0  0  0  0  0  0
    9.3530   -2.3312   23.1694 C   0  0  0  0  0  0  0  0  0  0  0  0
   10.6932   -1.6951   22.9932 C   0  0  0  0  0  0  0  0  0  0  0  0
   11.3837   -1.0858   23.9812 N   0  0  0  0  0  0  0  0  0  0  0  0
   12.4728   -0.6260   23.3827 N   0  0  0  0  0  0  0  0  0  0  0  0
   12.4521   -0.9270   22.0962 N   0  0  0  0  0  0  0  0  0  0  0  0
   11.3478   -1.5943   21.8210 N   0  0  0  0  0  0  0  0  0  0  0  0
    9.4814   -3.1884   25.4866 C   0  0  0  0  0  0  0  0  0  0  0  0
    9.8634   -4.4640   26.2589 C   0  0  0  0  0  0  0  0  0  0  0  0
  1  2  3  0
  2  3  1  0
  3  4  1  0
  3  5  1  0
  5  6  1  0
  6  7  1  0
  7  8  1  0
  7 14  1  0
  8  9  1  0
  9 10  2  0
 10 11  1  0
 11 12  2  0
 12 13  1  0
 13  9  1  0
 14 15  1  0
 15  3  1  0
M  END
>  <Hit>  (317) 
Mpro-x0387_0

>  <Receptor>  (317) 
Mpro-x0305_0

>  <SCORE>  (317) 
-11.6572

>  <SCORE.norm>  (317) 
-0.77714899999999998

>  <SCORE.heavy>  (317) 
15

>  <OrigSmiles>  (317) 
C#CC1(O)CCN(Cc2nnn[nH]2)CC1

>  <SuCOS_Score>  (317) 
0.4581046970223569

>  <Max_SuCOS_Score>  (317) 
0

>  <Cum_SuCOS_Score>  (317) 
0

>  <TransFSScore_50nM>  (317) 
0.0056579999999999998

>  <TransFSScore_1uM>  (317) 
0.016140000000000002

>  <TransFSScore_10nM>  (317) 
0.0088020000000000008

>  <TransFSScore_200nM>  (317) 
0.021045999999999999

>  <TransFSScore>  (317) 
0.012911499999999999

>  <FeatureSteinScore>  (317) 
0.32586507410449722

>  <XCos_RefMols>  (317) 
x1392_0,x1385_0

>  <XCos_NumHits>  (317) 
2

>  <XCos_Score1>  (317) 
10.8153

>  <XCos_Score2>  (317) 
0.1833

>  <XCos_Score3>  (317) 
0.0169

$$$$
C#CC1(O)CCN(Cc2nnn[nH]2)CC1
     RDKit          3D

 15 16  0  0  0  0  0  0  0  0999 V2000
    7.7390   -6.3487   28.3283 C   0  0  0  0  0  0  0  0  0  0  0  0
    8.2600   -6.0362   27.2866 C   0  0  0  0  0  0  0  0  0  0  0  0
    8.8994   -5.6529   26.0077 C   0  0  0  0  0  0  0  0  0  0  0  0
    9.5841   -6.7694   25.4956 O   0  0  0  0  0  0  0  0  0  0  0  0
    7.7897   -5.2836   25.0185 C   0  0  0  0  0  0  0  0  0  0  0  0
    8.3267   -4.5987   23.7602 C   0  0  0  0  0  0  0  0  0  0  0  0
    9.3045   -3.5163   24.0474 N   0  0  0  0  0  0  0  0  0  0  0  0
    9.3269   -2.3375   23.1578 C   0  0  0  0  0  0  0  0  0  0  0  0
   10.6534   -1.6670   23.0071 C   0  0  0  0  0  0  0  0  0  0  0  0
   11.3074   -1.0373   24.0071 N   0  0  0  0  0  0  0  0  0  0  0  0
   12.3962   -0.5507   23.4297 N   0  0  0  0  0  0  0  0  0  0  0  0
   12.4098   -0.8555   22.1439 N   0  0  0  0  0  0  0  0  0  0  0  0
   11.3291   -1.5521   21.8483 N   0  0  0  0  0  0  0  0  0  0  0  0
    9.4910   -3.1961   25.4723 C   0  0  0  0  0  0  0  0  0  0  0  0
    9.8844   -4.4723   26.2377 C   0  0  0  0  0  0  0  0  0  0  0  0
  1  2  3  0
  2  3  1  0
  3  4  1  0
  3  5  1  0
  5  6  1  0
  6  7  1  0
  7  8  1  0
  7 14  1  0
  8  9  1  0
  9 10  2  0
 10 11  1  0
 11 12  2  0
 12 13  1  0
 13  9  1  0
 14 15  1  0
 15  3  1  0
M  END
>  <Hit>  (318) 
Mpro-x0387_0

>  <Receptor>  (318) 
Mpro-x0305_0

>  <SCORE>  (318) 
-11.6655

>  <SCORE.norm>  (318) 
-0.777698

>  <SCORE.heavy>  (318) 
15

>  <OrigSmiles>  (318) 
C#CC1(O)CCN(Cc2nnn[nH]2)CC1

>  <SuCOS_Score>  (318) 
0.45414827655909079

>  <Max_SuCOS_Score>  (318) 
0

>  <Cum_SuCOS_Score>  (318) 
0

>  <TransFSScore_50nM>  (318) 
0.0060899999999999999

>  <TransFSScore_1uM>  (318) 
0.014945

>  <TransFSScore_10nM>  (318) 
0.0080309999999999999

>  <TransFSScore_200nM>  (318) 
0.019775999999999998

>  <TransFSScore>  (318) 
0.012210499999999999

>  <FeatureSteinScore>  (318) 
0.32198121203456892

>  <XCos_RefMols>  (318) 
x1392_0,x0305_0,x1385_0

>  <XCos_NumHits>  (318) 
3

>  <XCos_Score1>  (318) 
10.9049

>  <XCos_Score2>  (318) 
0.1848

>  <XCos_Score3>  (318) 
0.0169

$$$$
C#CC1CCCCN1Cc1cscc1C
     RDKit          3D

 15 16  0  0  0  0  0  0  0  0999 V2000
    6.5021   -1.8167   24.1829 C   0  0  0  0  0  0  0  0  0  0  0  0
    7.3511   -2.4028   23.5563 C   0  0  0  0  0  0  0  0  0  0  0  0
    8.3732   -3.1789   22.8143 C   0  0  2  0  0  0  0  0  0  0  0  0
    8.1695   -4.6122   23.2790 C   0  0  0  0  0  0  0  0  0  0  0  0
    8.8351   -4.9933   24.5896 C   0  0  0  0  0  0  0  0  0  0  0  0
   10.2018   -4.3568   24.7950 C   0  0  0  0  0  0  0  0  0  0  0  0
   10.1763   -2.8628   24.4607 C   0  0  0  0  0  0  0  0  0  0  0  0
    9.7435   -2.6834   23.0622 N   0  0  0  0  0  0  0  0  0  0  0  0
   10.1268   -1.3706   22.4990 C   0  0  0  0  0  0  0  0  0  0  0  0
   11.6049   -1.0879   22.4651 C   0  0  0  0  0  0  0  0  0  0  0  0
   12.4092   -1.6115   21.4591 C   0  0  0  0  0  0  0  0  0  0  0  0
   13.9689   -1.0627   21.6847 S   0  0  0  0  0  0  0  0  0  0  0  0
   13.6614   -0.1234   23.0389 C   0  0  0  0  0  0  0  0  0  0  0  0
   12.3102   -0.2488   23.3623 C   0  0  0  0  0  0  0  0  0  0  0  0
   11.6787    0.4722   24.5135 C   0  0  0  0  0  0  0  0  0  0  0  0
  1  2  3  0
  3  2  1  1
  3  4  1  0
  4  5  1  0
  5  6  1  0
  6  7  1  0
  7  8  1  0
  8  9  1  0
  8  3  1  0
  9 10  1  0
 10 11  2  0
 11 12  1  0
 12 13  1  0
 13 14  2  0
 14 15  1  0
 14 10  1  0
M  END
>  <Hit>  (319) 
Mpro-x0387_0

>  <Receptor>  (319) 
Mpro-x0305_0

>  <SCORE>  (319) 
-11.164999999999999

>  <SCORE.norm>  (319) 
-0.74433099999999996

>  <SCORE.heavy>  (319) 
15

>  <OrigSmiles>  (319) 
C#CC1CCCCN1Cc1cscc1C

>  <SuCOS_Score>  (319) 
0.43360260310509108

>  <Max_SuCOS_Score>  (319) 
0

>  <Cum_SuCOS_Score>  (319) 
0

>  <TransFSScore_50nM>  (319) 
0.00114

>  <TransFSScore_1uM>  (319) 
0.119975

>  <TransFSScore_10nM>  (319) 
0.04197

>  <TransFSScore_200nM>  (319) 
0.029922000000000001

>  <TransFSScore>  (319) 
0.048251750000000003

>  <FeatureSteinScore>  (319) 
0.44346474151863263

>  <XCos_RefMols>  (319) 
x1392_0,x0874_0

>  <XCos_NumHits>  (319) 
2

>  <XCos_Score1>  (319) 
11.3100

>  <XCos_Score2>  (319) 
0.0639

>  <XCos_Score3>  (319) 
0.0056

$$$$
C#CC1CCCCN1Cc1cscc1C
     RDKit          3D

 15 16  0  0  0  0  0  0  0  0999 V2000
    6.0311   -1.6567   23.1323 C   0  0  0  0  0  0  0  0  0  0  0  0
    6.9663   -2.2999   22.7214 C   0  0  0  0  0  0  0  0  0  0  0  0
    8.0769   -3.1101   22.1669 C   0  0  2  0  0  0  0  0  0  0  0  0
    7.8538   -4.4998   22.7421 C   0  0  0  0  0  0  0  0  0  0  0  0
    8.3837   -4.7379   24.1452 C   0  0  0  0  0  0  0  0  0  0  0  0
    9.7078   -4.0443   24.4300 C   0  0  0  0  0  0  0  0  0  0  0  0
    9.6879   -2.5891   23.9543 C   0  0  0  0  0  0  0  0  0  0  0  0
    9.4027   -2.5529   22.5077 N   0  0  0  0  0  0  0  0  0  0  0  0
    9.8173   -1.2869   21.8651 C   0  0  0  0  0  0  0  0  0  0  0  0
   11.2268   -0.8453   22.1553 C   0  0  0  0  0  0  0  0  0  0  0  0
   12.3053   -1.6839   21.8972 C   0  0  0  0  0  0  0  0  0  0  0  0
   13.7134   -0.8722   22.2757 S   0  0  0  0  0  0  0  0  0  0  0  0
   12.9984    0.5704   22.7434 C   0  0  0  0  0  0  0  0  0  0  0  0
   11.6147    0.4290   22.6372 C   0  0  0  0  0  0  0  0  0  0  0  0
   10.6568    1.5348   22.9589 C   0  0  0  0  0  0  0  0  0  0  0  0
  1  2  3  0
  3  2  1  1
  3  4  1  0
  4  5  1  0
  5  6  1  0
  6  7  1  0
  7  8  1  0
  8  9  1  0
  8  3  1  0
  9 10  1  0
 10 11  2  0
 11 12  1  0
 12 13  1  0
 13 14  2  0
 14 15  1  0
 14 10  1  0
M  END
>  <Hit>  (320) 
Mpro-x0387_0

>  <Receptor>  (320) 
Mpro-x0305_0

>  <SCORE>  (320) 
-11.7338

>  <SCORE.norm>  (320) 
-0.78225199999999995

>  <SCORE.heavy>  (320) 
15

>  <OrigSmiles>  (320) 
C#CC1CCCCN1Cc1cscc1C

>  <SuCOS_Score>  (320) 
0.34400940855394624

>  <Max_SuCOS_Score>  (320) 
0

>  <Cum_SuCOS_Score>  (320) 
0

>  <TransFSScore_50nM>  (320) 
0.0057970000000000001

>  <TransFSScore_1uM>  (320) 
0.056558999999999998

>  <TransFSScore_10nM>  (320) 
0.035836

>  <TransFSScore_200nM>  (320) 
0.025347000000000001

>  <TransFSScore>  (320) 
0.030884750000000002

>  <FeatureSteinScore>  (320) 
0.43243963491485032

>  <XCos_RefMols>  (320) 
x0874_0,x1392_0

>  <XCos_NumHits>  (320) 
2

>  <XCos_Score1>  (320) 
11.0082

>  <XCos_Score2>  (320) 
0.0000

>  <XCos_Score3>  (320) 
0.0000

$$$$
C#CC1CCCCN1Cc1cscc1C
     RDKit          3D

 15 16  0  0  0  0  0  0  0  0999 V2000
    6.0335   -1.5033   22.9962 C   0  0  0  0  0  0  0  0  0  0  0  0
    6.9590   -2.1516   22.5719 C   0  0  0  0  0  0  0  0  0  0  0  0
    8.0530   -2.9951   22.0340 C   0  0  2  0  0  0  0  0  0  0  0  0
    7.7658   -4.3825   22.5858 C   0  0  0  0  0  0  0  0  0  0  0  0
    8.2522   -4.6564   23.9981 C   0  0  0  0  0  0  0  0  0  0  0  0
    9.5929   -4.0149   24.3237 C   0  0  0  0  0  0  0  0  0  0  0  0
    9.6373   -2.5544   23.8664 C   0  0  0  0  0  0  0  0  0  0  0  0
    9.3893   -2.4906   22.4139 N   0  0  0  0  0  0  0  0  0  0  0  0
    9.8649   -1.2329   21.7977 C   0  0  0  0  0  0  0  0  0  0  0  0
   11.2770   -0.8387   22.1393 C   0  0  0  0  0  0  0  0  0  0  0  0
   12.3371   -1.7075   21.9064 C   0  0  0  0  0  0  0  0  0  0  0  0
   13.7562   -0.9443   22.3408 S   0  0  0  0  0  0  0  0  0  0  0  0
   13.0708    0.5144   22.8026 C   0  0  0  0  0  0  0  0  0  0  0  0
   11.6877    0.4174   22.6494 C   0  0  0  0  0  0  0  0  0  0  0  0
   10.7540    1.5487   22.9533 C   0  0  0  0  0  0  0  0  0  0  0  0
  1  2  3  0
  3  2  1  1
  3  4  1  0
  4  5  1  0
  5  6  1  0
  6  7  1  0
  7  8  1  0
  8  9  1  0
  8  3  1  0
  9 10  1  0
 10 11  2  0
 11 12  1  0
 12 13  1  0
 13 14  2  0
 14 15  1  0
 14 10  1  0
M  END
>  <Hit>  (321) 
Mpro-x0387_0

>  <Receptor>  (321) 
Mpro-x0305_0

>  <SCORE>  (321) 
-11.773199999999999

>  <SCORE.norm>  (321) 
-0.78487899999999999

>  <SCORE.heavy>  (321) 
15

>  <OrigSmiles>  (321) 
C#CC1CCCCN1Cc1cscc1C

>  <SuCOS_Score>  (321) 
0.34099077007590312

>  <Max_SuCOS_Score>  (321) 
0

>  <Cum_SuCOS_Score>  (321) 
0

>  <TransFSScore_50nM>  (321) 
0.0057590000000000002

>  <TransFSScore_1uM>  (321) 
0.059929999999999997

>  <TransFSScore_10nM>  (321) 
0.033427999999999999

>  <TransFSScore_200nM>  (321) 
0.022695

>  <TransFSScore>  (321) 
0.030453000000000001

>  <FeatureSteinScore>  (321) 
0.42021926586893749

>  <XCos_RefMols>  (321) 
x0874_0,x1392_0

>  <XCos_NumHits>  (321) 
2

>  <XCos_Score1>  (321) 
10.5797

>  <XCos_Score2>  (321) 
0.0000

>  <XCos_Score3>  (321) 
0.0000

$$$$
C#CC1CCCCN1Cc1cscc1C
     RDKit          3D

 15 16  0  0  0  0  0  0  0  0999 V2000
    6.0369   -1.5582   22.9467 C   0  0  0  0  0  0  0  0  0  0  0  0
    6.9753   -2.1884   22.5234 C   0  0  0  0  0  0  0  0  0  0  0  0
    8.0890   -3.0155   22.0009 C   0  0  2  0  0  0  0  0  0  0  0  0
    7.8229   -4.4039   22.5609 C   0  0  0  0  0  0  0  0  0  0  0  0
    8.3026   -4.6581   23.9791 C   0  0  0  0  0  0  0  0  0  0  0  0
    9.6286   -3.9896   24.3107 C   0  0  0  0  0  0  0  0  0  0  0  0
    9.6498   -2.5320   23.8426 C   0  0  0  0  0  0  0  0  0  0  0  0
    9.4127   -2.4836   22.3877 N   0  0  0  0  0  0  0  0  0  0  0  0
    9.8701   -1.2220   21.7659 C   0  0  0  0  0  0  0  0  0  0  0  0
   11.2768   -0.8067   22.1045 C   0  0  0  0  0  0  0  0  0  0  0  0
   12.3568   -1.6271   21.7987 C   0  0  0  0  0  0  0  0  0  0  0  0
   13.7617   -0.8491   22.2524 S   0  0  0  0  0  0  0  0  0  0  0  0
   13.0438    0.5573   22.8158 C   0  0  0  0  0  0  0  0  0  0  0  0
   11.6612    0.4279   22.6830 C   0  0  0  0  0  0  0  0  0  0  0  0
   10.7015    1.5097   23.0734 C   0  0  0  0  0  0  0  0  0  0  0  0
  1  2  3  0
  3  2  1  1
  3  4  1  0
  4  5  1  0
  5  6  1  0
  6  7  1  0
  7  8  1  0
  8  9  1  0
  8  3  1  0
  9 10  1  0
 10 11  2  0
 11 12  1  0
 12 13  1  0
 13 14  2  0
 14 15  1  0
 14 10  1  0
M  END
>  <Hit>  (322) 
Mpro-x0387_0

>  <Receptor>  (322) 
Mpro-x0305_0

>  <SCORE>  (322) 
-11.800700000000001

>  <SCORE.norm>  (322) 
-0.78671500000000005

>  <SCORE.heavy>  (322) 
15

>  <OrigSmiles>  (322) 
C#CC1CCCCN1Cc1cscc1C

>  <SuCOS_Score>  (322) 
0.33083876193742157

>  <Max_SuCOS_Score>  (322) 
0

>  <Cum_SuCOS_Score>  (322) 
0

>  <TransFSScore_50nM>  (322) 
0.006234

>  <TransFSScore_1uM>  (322) 
0.051758999999999999

>  <TransFSScore_10nM>  (322) 
0.033012

>  <TransFSScore_200nM>  (322) 
0.022907

>  <TransFSScore>  (322) 
0.028478

>  <FeatureSteinScore>  (322) 
0.40645930718919093

>  <XCos_RefMols>  (322) 
x0874_0,x1392_0

>  <XCos_NumHits>  (322) 
2

>  <XCos_Score1>  (322) 
10.5562

>  <XCos_Score2>  (322) 
0.0000

>  <XCos_Score3>  (322) 
0.0000

$$$$
C#CC1CCCCN1Cc1cscc1C
     RDKit          3D

 15 16  0  0  0  0  0  0  0  0999 V2000
    6.4624   -1.2412   23.7432 C   0  0  0  0  0  0  0  0  0  0  0  0
    7.2087   -1.9703   23.1361 C   0  0  0  0  0  0  0  0  0  0  0  0
    8.1735   -2.8479   22.4315 C   0  0  2  0  0  0  0  0  0  0  0  0
    7.9045   -4.2339   22.9958 C   0  0  0  0  0  0  0  0  0  0  0  0
    8.5758   -4.5614   24.3180 C   0  0  0  0  0  0  0  0  0  0  0  0
    9.9778   -3.9867   24.4567 C   0  0  0  0  0  0  0  0  0  0  0  0
   10.0237   -2.5193   24.0223 C   0  0  0  0  0  0  0  0  0  0  0  0
    9.5725   -2.4110   22.6222 N   0  0  0  0  0  0  0  0  0  0  0  0
   10.0124   -1.1613   21.9648 C   0  0  0  0  0  0  0  0  0  0  0  0
   11.4753   -0.8360   22.1066 C   0  0  0  0  0  0  0  0  0  0  0  0
   12.4348   -1.5280   21.3763 C   0  0  0  0  0  0  0  0  0  0  0  0
   13.9350   -0.8852   21.7245 S   0  0  0  0  0  0  0  0  0  0  0  0
   13.4073    0.3050   22.7808 C   0  0  0  0  0  0  0  0  0  0  0  0
   12.0218    0.1990   22.9047 C   0  0  0  0  0  0  0  0  0  0  0  0
   11.2085    1.1210   23.7603 C   0  0  0  0  0  0  0  0  0  0  0  0
  1  2  3  0
  3  2  1  1
  3  4  1  0
  4  5  1  0
  5  6  1  0
  6  7  1  0
  7  8  1  0
  8  9  1  0
  8  3  1  0
  9 10  1  0
 10 11  2  0
 11 12  1  0
 12 13  1  0
 13 14  2  0
 14 15  1  0
 14 10  1  0
M  END
>  <Hit>  (323) 
Mpro-x0387_0

>  <Receptor>  (323) 
Mpro-x1249_0

>  <SCORE>  (323) 
-11.887499999999999

>  <SCORE.norm>  (323) 
-0.79250299999999996

>  <SCORE.heavy>  (323) 
15

>  <OrigSmiles>  (323) 
C#CC1CCCCN1Cc1cscc1C

>  <SuCOS_Score>  (323) 
0.34022650043585528

>  <Max_SuCOS_Score>  (323) 
0

>  <Cum_SuCOS_Score>  (323) 
0

>  <TransFSScore_50nM>  (323) 
0.0025070000000000001

>  <TransFSScore_1uM>  (323) 
0.048856999999999998

>  <TransFSScore_10nM>  (323) 
0.033016999999999998

>  <TransFSScore_200nM>  (323) 
0.024117

>  <TransFSScore>  (323) 
0.027124499999999999

>  <FeatureSteinScore>  (323) 
0.39012606628789132

>  <XCos_RefMols>  (323) 
x1392_0,x0874_0

>  <XCos_NumHits>  (323) 
2

>  <XCos_Score1>  (323) 
10.1839

>  <XCos_Score2>  (323) 
0.0000

>  <XCos_Score3>  (323) 
0.0000

$$$$
C#CC1CCCCN1Cc1cscc1C
     RDKit          3D

 15 16  0  0  0  0  0  0  0  0999 V2000
    6.0981   -1.4896   22.9246 C   0  0  0  0  0  0  0  0  0  0  0  0
    6.9975   -2.2057   22.5571 C   0  0  0  0  0  0  0  0  0  0  0  0
    8.1160   -3.0413   22.0587 C   0  0  2  0  0  0  0  0  0  0  0  0
    7.8470   -4.4191   22.6427 C   0  0  0  0  0  0  0  0  0  0  0  0
    8.3161   -4.6461   24.0691 C   0  0  0  0  0  0  0  0  0  0  0  0
    9.6389   -3.9699   24.3980 C   0  0  0  0  0  0  0  0  0  0  0  0
    9.6623   -2.5213   23.9027 C   0  0  0  0  0  0  0  0  0  0  0  0
    9.4361   -2.5007   22.4453 N   0  0  0  0  0  0  0  0  0  0  0  0
    9.8970   -1.2505   21.8033 C   0  0  0  0  0  0  0  0  0  0  0  0
   11.3082   -0.8389   22.1275 C   0  0  0  0  0  0  0  0  0  0  0  0
   12.3836   -1.6576   21.8015 C   0  0  0  0  0  0  0  0  0  0  0  0
   13.7947   -0.8843   22.2438 S   0  0  0  0  0  0  0  0  0  0  0  0
   13.0851    0.5181   22.8274 C   0  0  0  0  0  0  0  0  0  0  0  0
   11.7008    0.3908   22.7110 C   0  0  0  0  0  0  0  0  0  0  0  0
   10.7470    1.4701   23.1220 C   0  0  0  0  0  0  0  0  0  0  0  0
  1  2  3  0
  3  2  1  1
  3  4  1  0
  4  5  1  0
  5  6  1  0
  6  7  1  0
  7  8  1  0
  8  9  1  0
  8  3  1  0
  9 10  1  0
 10 11  2  0
 11 12  1  0
 12 13  1  0
 13 14  2  0
 14 15  1  0
 14 10  1  0
M  END
>  <Hit>  (324) 
Mpro-x0387_0

>  <Receptor>  (324) 
Mpro-x0305_0

>  <SCORE>  (324) 
-11.8964

>  <SCORE.norm>  (324) 
-0.79309200000000002

>  <SCORE.heavy>  (324) 
15

>  <OrigSmiles>  (324) 
C#CC1CCCCN1Cc1cscc1C

>  <SuCOS_Score>  (324) 
0.34022699825593627

>  <Max_SuCOS_Score>  (324) 
0

>  <Cum_SuCOS_Score>  (324) 
0

>  <TransFSScore_50nM>  (324) 
0.0061320000000000003

>  <TransFSScore_1uM>  (324) 
0.055871999999999998

>  <TransFSScore_10nM>  (324) 
0.029933999999999999

>  <TransFSScore_200nM>  (324) 
0.022887000000000001

>  <TransFSScore>  (324) 
0.028706249999999999

>  <FeatureSteinScore>  (324) 
0.41061574310047383

>  <XCos_RefMols>  (324) 
x0874_0,x1392_0

>  <XCos_NumHits>  (324) 
2

>  <XCos_Score1>  (324) 
10.6615

>  <XCos_Score2>  (324) 
0.0000

>  <XCos_Score3>  (324) 
0.0000

$$$$
C#CC1CCCCN1Cc1cscc1C
     RDKit          3D

 15 16  0  0  0  0  0  0  0  0999 V2000
    6.4365   -1.3573   23.8256 C   0  0  0  0  0  0  0  0  0  0  0  0
    7.2687   -2.0050   23.2383 C   0  0  0  0  0  0  0  0  0  0  0  0
    8.2503   -2.8525   22.5202 C   0  0  2  0  0  0  0  0  0  0  0  0
    8.0100   -4.2518   23.0643 C   0  0  0  0  0  0  0  0  0  0  0  0
    8.6890   -4.5851   24.3811 C   0  0  0  0  0  0  0  0  0  0  0  0
   10.0793   -3.9843   24.5273 C   0  0  0  0  0  0  0  0  0  0  0  0
   10.0951   -2.5100   24.1143 C   0  0  0  0  0  0  0  0  0  0  0  0
    9.6405   -2.3903   22.7164 N   0  0  0  0  0  0  0  0  0  0  0  0
   10.0544   -1.1225   22.0771 C   0  0  0  0  0  0  0  0  0  0  0  0
   11.5214   -0.7988   22.1721 C   0  0  0  0  0  0  0  0  0  0  0  0
   12.4483   -1.4401   21.3581 C   0  0  0  0  0  0  0  0  0  0  0  0
   13.9612   -0.8120   21.6767 S   0  0  0  0  0  0  0  0  0  0  0  0
   13.4793    0.3090   22.8264 C   0  0  0  0  0  0  0  0  0  0  0  0
   12.1012    0.1884   23.0063 C   0  0  0  0  0  0  0  0  0  0  0  0
   11.3255    1.0524   23.9525 C   0  0  0  0  0  0  0  0  0  0  0  0
  1  2  3  0
  3  2  1  1
  3  4  1  0
  4  5  1  0
  5  6  1  0
  6  7  1  0
  7  8  1  0
  8  9  1  0
  8  3  1  0
  9 10  1  0
 10 11  2  0
 11 12  1  0
 12 13  1  0
 13 14  2  0
 14 15  1  0
 14 10  1  0
M  END
>  <Hit>  (325) 
Mpro-x0387_0

>  <Receptor>  (325) 
Mpro-x1249_0

>  <SCORE>  (325) 
-11.9247

>  <SCORE.norm>  (325) 
-0.79497899999999999

>  <SCORE.heavy>  (325) 
15

>  <OrigSmiles>  (325) 
C#CC1CCCCN1Cc1cscc1C

>  <SuCOS_Score>  (325) 
0.34933842119849579

>  <Max_SuCOS_Score>  (325) 
0

>  <Cum_SuCOS_Score>  (325) 
0

>  <TransFSScore_50nM>  (325) 
0.002258

>  <TransFSScore_1uM>  (325) 
0.047606000000000002

>  <TransFSScore_10nM>  (325) 
0.034714000000000002

>  <TransFSScore_200nM>  (325) 
0.021186

>  <TransFSScore>  (325) 
0.026441000000000003

>  <FeatureSteinScore>  (325) 
0.39966600762268273

>  <XCos_RefMols>  (325) 
x1392_0,x0874_0

>  <XCos_NumHits>  (325) 
2

>  <XCos_Score1>  (325) 
10.3018

>  <XCos_Score2>  (325) 
0.0582

>  <XCos_Score3>  (325) 
0.0056

$$$$
C#CC1CCCCN1Cc1cscc1C
     RDKit          3D

 15 16  0  0  0  0  0  0  0  0999 V2000
    6.5043   -1.3614   23.8352 C   0  0  0  0  0  0  0  0  0  0  0  0
    7.2683   -2.0846   23.2432 C   0  0  0  0  0  0  0  0  0  0  0  0
    8.2539   -2.9281   22.5260 C   0  0  2  0  0  0  0  0  0  0  0  0
    8.0406   -4.3227   23.0931 C   0  0  0  0  0  0  0  0  0  0  0  0
    8.7397   -4.6266   24.4064 C   0  0  0  0  0  0  0  0  0  0  0  0
   10.1226   -4.0035   24.5274 C   0  0  0  0  0  0  0  0  0  0  0  0
   10.1119   -2.5354   24.0930 C   0  0  0  0  0  0  0  0  0  0  0  0
    9.6393   -2.4428   22.6989 N   0  0  0  0  0  0  0  0  0  0  0  0
   10.0270   -1.1786   22.0365 C   0  0  0  0  0  0  0  0  0  0  0  0
   11.4792   -0.8021   22.1604 C   0  0  0  0  0  0  0  0  0  0  0  0
   12.4524   -1.4542   21.4115 C   0  0  0  0  0  0  0  0  0  0  0  0
   13.9334   -0.7606   21.7438 S   0  0  0  0  0  0  0  0  0  0  0  0
   13.3785    0.4024   22.8164 C   0  0  0  0  0  0  0  0  0  0  0  0
   11.9997    0.2460   22.9587 C   0  0  0  0  0  0  0  0  0  0  0  0
   11.1661    1.1322   23.8326 C   0  0  0  0  0  0  0  0  0  0  0  0
  1  2  3  0
  3  2  1  1
  3  4  1  0
  4  5  1  0
  5  6  1  0
  6  7  1  0
  7  8  1  0
  8  9  1  0
  8  3  1  0
  9 10  1  0
 10 11  2  0
 11 12  1  0
 12 13  1  0
 13 14  2  0
 14 15  1  0
 14 10  1  0
M  END
>  <Hit>  (326) 
Mpro-x0387_0

>  <Receptor>  (326) 
Mpro-x1249_0

>  <SCORE>  (326) 
-11.9275

>  <SCORE.norm>  (326) 
-0.79516699999999996

>  <SCORE.heavy>  (326) 
15

>  <OrigSmiles>  (326) 
C#CC1CCCCN1Cc1cscc1C

>  <SuCOS_Score>  (326) 
0.34962848807821667

>  <Max_SuCOS_Score>  (326) 
0

>  <Cum_SuCOS_Score>  (326) 
0

>  <TransFSScore_50nM>  (326) 
0.0020270000000000002

>  <TransFSScore_1uM>  (326) 
0.046745000000000002

>  <TransFSScore_10nM>  (326) 
0.032993000000000001

>  <TransFSScore_200nM>  (326) 
0.019373999999999999

>  <TransFSScore>  (326) 
0.025284750000000002

>  <FeatureSteinScore>  (326) 
0.41091725106657401

>  <XCos_RefMols>  (326) 
x1392_0,x0874_0

>  <XCos_NumHits>  (326) 
2

>  <XCos_Score1>  (326) 
10.5697

>  <XCos_Score2>  (326) 
0.0597

>  <XCos_Score3>  (326) 
0.0056

$$$$
C#CC1CCCCN1Cc1cscc1C
     RDKit          3D

 15 16  0  0  0  0  0  0  0  0999 V2000
    6.4389   -1.4130   23.8450 C   0  0  0  0  0  0  0  0  0  0  0  0
    7.2653   -2.0452   23.2332 C   0  0  0  0  0  0  0  0  0  0  0  0
    8.2622   -2.8752   22.5157 C   0  0  2  0  0  0  0  0  0  0  0  0
    8.0407   -4.2801   23.0535 C   0  0  0  0  0  0  0  0  0  0  0  0
    8.7196   -4.6083   24.3716 C   0  0  0  0  0  0  0  0  0  0  0  0
   10.1002   -3.9874   24.5254 C   0  0  0  0  0  0  0  0  0  0  0  0
   10.0956   -2.5114   24.1182 C   0  0  0  0  0  0  0  0  0  0  0  0
    9.6445   -2.3931   22.7190 N   0  0  0  0  0  0  0  0  0  0  0  0
   10.0420   -1.1168   22.0861 C   0  0  0  0  0  0  0  0  0  0  0  0
   11.5030   -0.7700   22.1910 C   0  0  0  0  0  0  0  0  0  0  0  0
   12.4505   -1.4269   21.4140 C   0  0  0  0  0  0  0  0  0  0  0  0
   13.9500   -0.7673   21.7322 S   0  0  0  0  0  0  0  0  0  0  0  0
   13.4361    0.3868   22.8343 C   0  0  0  0  0  0  0  0  0  0  0  0
   12.0572    0.2539   22.9981 C   0  0  0  0  0  0  0  0  0  0  0  0
   11.2559    1.1400   23.9017 C   0  0  0  0  0  0  0  0  0  0  0  0
  1  2  3  0
  3  2  1  1
  3  4  1  0
  4  5  1  0
  5  6  1  0
  6  7  1  0
  7  8  1  0
  8  9  1  0
  8  3  1  0
  9 10  1  0
 10 11  2  0
 11 12  1  0
 12 13  1  0
 13 14  2  0
 14 15  1  0
 14 10  1  0
M  END
>  <Hit>  (327) 
Mpro-x0387_0

>  <Receptor>  (327) 
Mpro-x1249_0

>  <SCORE>  (327) 
-11.9435

>  <SCORE.norm>  (327) 
-0.79623699999999997

>  <SCORE.heavy>  (327) 
15

>  <OrigSmiles>  (327) 
C#CC1CCCCN1Cc1cscc1C

>  <SuCOS_Score>  (327) 
0.35005887083654985

>  <Max_SuCOS_Score>  (327) 
0

>  <Cum_SuCOS_Score>  (327) 
0

>  <TransFSScore_50nM>  (327) 
0.0021459999999999999

>  <TransFSScore_1uM>  (327) 
0.047310999999999999

>  <TransFSScore_10nM>  (327) 
0.034833999999999997

>  <TransFSScore_200nM>  (327) 
0.020294

>  <TransFSScore>  (327) 
0.026146250000000003

>  <FeatureSteinScore>  (327) 
0.41132368126130847

>  <XCos_RefMols>  (327) 
x1392_0,x0874_0

>  <XCos_NumHits>  (327) 
2

>  <XCos_Score1>  (327) 
10.4786

>  <XCos_Score2>  (327) 
0.0592

>  <XCos_Score3>  (327) 
0.0056

$$$$
C#CC1CCCCN1Cc1cscc1C
     RDKit          3D

 15 16  0  0  0  0  0  0  0  0999 V2000
    6.4978   -1.1771   23.8143 C   0  0  0  0  0  0  0  0  0  0  0  0
    7.2319   -1.9194   23.2084 C   0  0  0  0  0  0  0  0  0  0  0  0
    8.1822   -2.7877   22.4733 C   0  0  2  0  0  0  0  0  0  0  0  0
    7.9132   -4.1834   23.0132 C   0  0  0  0  0  0  0  0  0  0  0  0
    8.6003   -4.5412   24.3192 C   0  0  0  0  0  0  0  0  0  0  0  0
   10.0072   -3.9768   24.4505 C   0  0  0  0  0  0  0  0  0  0  0  0
   10.0555   -2.5012   24.0450 C   0  0  0  0  0  0  0  0  0  0  0  0
    9.5861   -2.3622   22.6537 N   0  0  0  0  0  0  0  0  0  0  0  0
   10.0241   -1.1018   22.0157 C   0  0  0  0  0  0  0  0  0  0  0  0
   11.4955   -0.8016   22.1192 C   0  0  0  0  0  0  0  0  0  0  0  0
   12.4142   -1.4388   21.2927 C   0  0  0  0  0  0  0  0  0  0  0  0
   13.9356   -0.8395   21.6262 S   0  0  0  0  0  0  0  0  0  0  0  0
   13.4683    0.2635   22.7991 C   0  0  0  0  0  0  0  0  0  0  0  0
   12.0884    0.1592   22.9748 C   0  0  0  0  0  0  0  0  0  0  0  0
   11.3239    1.0140   23.9384 C   0  0  0  0  0  0  0  0  0  0  0  0
  1  2  3  0
  3  2  1  1
  3  4  1  0
  4  5  1  0
  5  6  1  0
  6  7  1  0
  7  8  1  0
  8  9  1  0
  8  3  1  0
  9 10  1  0
 10 11  2  0
 11 12  1  0
 12 13  1  0
 13 14  2  0
 14 15  1  0
 14 10  1  0
M  END
>  <Hit>  (328) 
Mpro-x0387_0

>  <Receptor>  (328) 
Mpro-x1249_0

>  <SCORE>  (328) 
-12.0177

>  <SCORE.norm>  (328) 
-0.80118

>  <SCORE.heavy>  (328) 
15

>  <OrigSmiles>  (328) 
C#CC1CCCCN1Cc1cscc1C

>  <SuCOS_Score>  (328) 
0.34148209337621388

>  <Max_SuCOS_Score>  (328) 
0

>  <Cum_SuCOS_Score>  (328) 
0

>  <TransFSScore_50nM>  (328) 
0.0023649999999999999

>  <TransFSScore_1uM>  (328) 
0.050215000000000003

>  <TransFSScore_10nM>  (328) 
0.036228999999999997

>  <TransFSScore_200nM>  (328) 
0.024257000000000001

>  <TransFSScore>  (328) 
0.0282665

>  <FeatureSteinScore>  (328) 
0.38901250481202554

>  <XCos_RefMols>  (328) 
x1392_0,x0874_0

>  <XCos_NumHits>  (328) 
2

>  <XCos_Score1>  (328) 
10.0328

>  <XCos_Score2>  (328) 
0.0567

>  <XCos_Score3>  (328) 
0.0056

$$$$
C#CC1CCCN(Cc2ccsc2Br)C1
     RDKit          3D

 15 16  0  0  0  0  0  0  0  0999 V2000
    9.4016   -0.4731   26.8797 C   0  0  0  0  0  0  0  0  0  0  0  0
    8.8467   -1.2464   26.1397 C   0  0  0  0  0  0  0  0  0  0  0  0
    8.1651   -2.1912   25.2330 C   0  0  2  0  0  0  0  0  0  0  0  0
    8.5955   -3.6366   25.5010 C   0  0  0  0  0  0  0  0  0  0  0  0
    9.7047   -4.1414   24.5666 C   0  0  0  0  0  0  0  0  0  0  0  0
   10.6051   -3.0405   23.9810 C   0  0  0  0  0  0  0  0  0  0  0  0
    9.8703   -1.8394   23.5311 N   0  0  0  0  0  0  0  0  0  0  0  0
   10.2054   -1.3600   22.1988 C   0  0  0  0  0  0  0  0  0  0  0  0
   11.6593   -0.9848   22.2120 C   0  0  0  0  0  0  0  0  0  0  0  0
   12.6202   -1.5095   21.3234 C   0  0  0  0  0  0  0  0  0  0  0  0
   13.8908   -0.9705   21.5081 C   0  0  0  0  0  0  0  0  0  0  0  0
   13.8122    0.1629   22.7430 S   0  0  0  0  0  0  0  0  0  0  0  0
   12.1807   -0.0096   23.0643 C   0  0  0  0  0  0  0  0  0  0  0  0
   11.2564    0.9443   24.4396 Br  0  0  0  0  0  0  0  0  0  0  0  0
    8.4239   -1.8300   23.7786 C   0  0  0  0  0  0  0  0  0  0  0  0
  1  2  3  0
  3  2  1  1
  3  4  1  0
  4  5  1  0
  5  6  1  0
  6  7  1  0
  7  8  1  0
  7 15  1  0
  8  9  1  0
  9 10  1  0
 10 11  2  0
 11 12  1  0
 12 13  1  0
 13 14  1  0
 13  9  2  0
 15  3  1  0
M  END
>  <Hit>  (329) 
Mpro-x0387_0

>  <Receptor>  (329) 
Mpro-x0874_0

>  <SCORE>  (329) 
-10.375299999999999

>  <SCORE.norm>  (329) 
-0.69168600000000002

>  <SCORE.heavy>  (329) 
15

>  <OrigSmiles>  (329) 
C#CC1CCCN(Cc2ccsc2Br)C1

>  <SuCOS_Score>  (329) 
0.4023205820561071

>  <Max_SuCOS_Score>  (329) 
0

>  <Cum_SuCOS_Score>  (329) 
0

>  <TransFSScore_50nM>  (329) 
0.00095

>  <TransFSScore_1uM>  (329) 
0.003748

>  <TransFSScore_10nM>  (329) 
0.0023080000000000002

>  <TransFSScore_200nM>  (329) 
0.0050480000000000004

>  <TransFSScore>  (329) 
0.0030135000000000001

>  <FeatureSteinScore>  (329) 
0.32302291571259845

>  <XCos_RefMols>  (329) 
x1392_0,x0874_0

>  <XCos_NumHits>  (329) 
2

>  <XCos_Score1>  (329) 
9.8485

>  <XCos_Score2>  (329) 
0.0556

>  <XCos_Score3>  (329) 
0.0056

$$$$
C#CC1CCCN(Cc2cscc2C)C1
     RDKit          3D

 15 16  0  0  0  0  0  0  0  0999 V2000
    7.0822   -2.5821   26.4353 C   0  0  0  0  0  0  0  0  0  0  0  0
    7.4124   -3.2338   25.4762 C   0  0  0  0  0  0  0  0  0  0  0  0
    7.8142   -4.0299   24.2998 C   0  0  2  0  0  0  0  0  0  0  0  0
    8.8641   -5.0723   24.6745 C   0  0  0  0  0  0  0  0  0  0  0  0
   10.2737   -4.4924   24.8596 C   0  0  0  0  0  0  0  0  0  0  0  0
   10.3692   -2.9894   24.5415 C   0  0  0  0  0  0  0  0  0  0  0  0
    9.7092   -2.7050   23.2566 N   0  0  0  0  0  0  0  0  0  0  0  0
   10.0874   -1.4069   22.6611 C   0  0  0  0  0  0  0  0  0  0  0  0
   11.5635   -1.1323   22.5624 C   0  0  0  0  0  0  0  0  0  0  0  0
   12.3249   -1.6421   21.5171 C   0  0  0  0  0  0  0  0  0  0  0  0
   13.8776   -1.0348   21.6577 S   0  0  0  0  0  0  0  0  0  0  0  0
   13.6320   -0.1425   23.0556 C   0  0  0  0  0  0  0  0  0  0  0  0
   12.3048   -0.3086   23.4488 C   0  0  0  0  0  0  0  0  0  0  0  0
   11.7257    0.3735   24.6505 C   0  0  0  0  0  0  0  0  0  0  0  0
    8.2902   -3.1311   23.1474 C   0  0  0  0  0  0  0  0  0  0  0  0
  1  2  3  0
  3  2  1  1
  3  4  1  0
  4  5  1  0
  5  6  1  0
  6  7  1  0
  7  8  1  0
  7 15  1  0
  8  9  1  0
  9 10  2  0
 10 11  1  0
 11 12  1  0
 12 13  2  0
 13 14  1  0
 13  9  1  0
 15  3  1  0
M  END
>  <Hit>  (330) 
Mpro-x0387_0

>  <Receptor>  (330) 
Mpro-x0305_0

>  <SCORE>  (330) 
-10.413399999999999

>  <SCORE.norm>  (330) 
-0.69422600000000001

>  <SCORE.heavy>  (330) 
15

>  <OrigSmiles>  (330) 
C#CC1CCCN(Cc2cscc2C)C1

>  <SuCOS_Score>  (330) 
0.48535200608039003

>  <Max_SuCOS_Score>  (330) 
0

>  <Cum_SuCOS_Score>  (330) 
0

>  <TransFSScore_50nM>  (330) 
0.00099700000000000006

>  <TransFSScore_1uM>  (330) 
0.053985999999999999

>  <TransFSScore_10nM>  (330) 
0.038755999999999999

>  <TransFSScore_200nM>  (330) 
0.019751999999999999

>  <TransFSScore>  (330) 
0.028372749999999995

>  <FeatureSteinScore>  (330) 
0.5918138885849541

>  <XCos_RefMols>  (330) 
x1392_0,x0874_0,x0774_0

>  <XCos_NumHits>  (330) 
3

>  <XCos_Score1>  (330) 
11.5914

>  <XCos_Score2>  (330) 
0.0655

>  <XCos_Score3>  (330) 
0.0056

$$$$
C#CC1CCCN(Cc2cscc2C)C1
     RDKit          3D

 15 16  0  0  0  0  0  0  0  0999 V2000
    7.0104   -2.5324   26.2900 C   0  0  0  0  0  0  0  0  0  0  0  0
    7.3595   -3.2120   25.3572 C   0  0  0  0  0  0  0  0  0  0  0  0
    7.7835   -4.0450   24.2147 C   0  0  2  0  0  0  0  0  0  0  0  0
    8.8347   -5.0665   24.6398 C   0  0  0  0  0  0  0  0  0  0  0  0
   10.2376   -4.4707   24.8248 C   0  0  0  0  0  0  0  0  0  0  0  0
   10.3278   -2.9789   24.4566 C   0  0  0  0  0  0  0  0  0  0  0  0
    9.6844   -2.7433   23.1535 N   0  0  0  0  0  0  0  0  0  0  0  0
   10.0626   -1.4637   22.5192 C   0  0  0  0  0  0  0  0  0  0  0  0
   11.5340   -1.1499   22.4947 C   0  0  0  0  0  0  0  0  0  0  0  0
   12.3565   -1.6214   21.4781 C   0  0  0  0  0  0  0  0  0  0  0  0
   13.8845   -0.9773   21.7018 S   0  0  0  0  0  0  0  0  0  0  0  0
   13.5505   -0.1168   23.1014 C   0  0  0  0  0  0  0  0  0  0  0  0
   12.2113   -0.3237   23.4287 C   0  0  0  0  0  0  0  0  0  0  0  0
   11.5590    0.3219   24.6130 C   0  0  0  0  0  0  0  0  0  0  0  0
    8.2700   -3.1829   23.0390 C   0  0  0  0  0  0  0  0  0  0  0  0
  1  2  3  0
  3  2  1  1
  3  4  1  0
  4  5  1  0
  5  6  1  0
  6  7  1  0
  7  8  1  0
  7 15  1  0
  8  9  1  0
  9 10  2  0
 10 11  1  0
 11 12  1  0
 12 13  2  0
 13 14  1  0
 13  9  1  0
 15  3  1  0
M  END
>  <Hit>  (331) 
Mpro-x0387_0

>  <Receptor>  (331) 
Mpro-x0305_0

>  <SCORE>  (331) 
-10.4556

>  <SCORE.norm>  (331) 
-0.69704299999999997

>  <SCORE.heavy>  (331) 
15

>  <OrigSmiles>  (331) 
C#CC1CCCN(Cc2cscc2C)C1

>  <SuCOS_Score>  (331) 
0.47431934570887124

>  <Max_SuCOS_Score>  (331) 
0

>  <Cum_SuCOS_Score>  (331) 
0

>  <TransFSScore_50nM>  (331) 
0.00087100000000000003

>  <TransFSScore_1uM>  (331) 
0.064882999999999996

>  <TransFSScore_10nM>  (331) 
0.04206

>  <TransFSScore_200nM>  (331) 
0.018970000000000001

>  <TransFSScore>  (331) 
0.031696000000000002

>  <FeatureSteinScore>  (331) 
0.59222457698739395

>  <XCos_RefMols>  (331) 
x1392_0,x0874_0

>  <XCos_NumHits>  (331) 
2

>  <XCos_Score1>  (331) 
11.4383

>  <XCos_Score2>  (331) 
0.0646

>  <XCos_Score3>  (331) 
0.0056

$$$$
C#CC1CCCN(Cc2cscc2C)C1
     RDKit          3D

 15 16  0  0  0  0  0  0  0  0999 V2000
    8.2546   -5.6482   23.2966 C   0  0  0  0  0  0  0  0  0  0  0  0
    8.9549   -5.0405   24.0674 C   0  0  0  0  0  0  0  0  0  0  0  0
    9.8094   -4.2950   25.0124 C   0  0  2  0  0  0  0  0  0  0  0  0
    8.9857   -3.7190   26.1608 C   0  0  0  0  0  0  0  0  0  0  0  0
    8.1827   -2.4669   25.7797 C   0  0  0  0  0  0  0  0  0  0  0  0
    8.4374   -1.9854   24.3401 C   0  0  0  0  0  0  0  0  0  0  0  0
    9.8847   -1.9394   24.0743 N   0  0  0  0  0  0  0  0  0  0  0  0
   10.2548   -1.1200   22.9020 C   0  0  0  0  0  0  0  0  0  0  0  0
   11.7280   -1.0005   22.6202 C   0  0  0  0  0  0  0  0  0  0  0  0
   12.3053   -1.6199   21.5179 C   0  0  0  0  0  0  0  0  0  0  0  0
   13.9153   -1.1693   21.4495 S   0  0  0  0  0  0  0  0  0  0  0  0
   13.9269   -0.2102   22.8246 C   0  0  0  0  0  0  0  0  0  0  0  0
   12.6468   -0.2272   23.3763 C   0  0  0  0  0  0  0  0  0  0  0  0
   12.2850    0.5503   24.6048 C   0  0  0  0  0  0  0  0  0  0  0  0
   10.6260   -3.2076   24.2960 C   0  0  0  0  0  0  0  0  0  0  0  0
  1  2  3  0
  3  2  1  6
  3  4  1  0
  4  5  1  0
  5  6  1  0
  6  7  1  0
  7  8  1  0
  7 15  1  0
  8  9  1  0
  9 10  2  0
 10 11  1  0
 11 12  1  0
 12 13  2  0
 13 14  1  0
 13  9  1  0
 15  3  1  0
M  END
>  <Hit>  (332) 
Mpro-x0387_0

>  <Receptor>  (332) 
Mpro-x0305_0

>  <SCORE>  (332) 
-11.106400000000001

>  <SCORE.norm>  (332) 
-0.740425

>  <SCORE.heavy>  (332) 
15

>  <OrigSmiles>  (332) 
C#CC1CCCN(Cc2cscc2C)C1

>  <SuCOS_Score>  (332) 
0.49708435955064384

>  <Max_SuCOS_Score>  (332) 
0

>  <Cum_SuCOS_Score>  (332) 
0

>  <TransFSScore_50nM>  (332) 
0.002052

>  <TransFSScore_1uM>  (332) 
0.037128000000000001

>  <TransFSScore_10nM>  (332) 
0.0088059999999999996

>  <TransFSScore_200nM>  (332) 
0.064869999999999997

>  <TransFSScore>  (332) 
0.028213999999999999

>  <FeatureSteinScore>  (332) 
0.53195763636363447

>  <XCos_RefMols>  (332) 
x1392_0,x1374_0,x0770_0

>  <XCos_NumHits>  (332) 
3

>  <XCos_Score1>  (332) 
11.6728

>  <XCos_Score2>  (332) 
0.1978

>  <XCos_Score3>  (332) 
0.0169

$$$$
C#CC1CCCN(Cc2cscc2C)C1
     RDKit          3D

 15 16  0  0  0  0  0  0  0  0999 V2000
    8.1546   -5.5415   23.2755 C   0  0  0  0  0  0  0  0  0  0  0  0
    8.8718   -4.9489   24.0425 C   0  0  0  0  0  0  0  0  0  0  0  0
    9.7524   -4.2259   24.9811 C   0  0  2  0  0  0  0  0  0  0  0  0
    8.9528   -3.6316   26.1372 C   0  0  0  0  0  0  0  0  0  0  0  0
    8.1777   -2.3597   25.7645 C   0  0  0  0  0  0  0  0  0  0  0  0
    8.4318   -1.8824   24.3234 C   0  0  0  0  0  0  0  0  0  0  0  0
    9.8775   -1.8716   24.0453 N   0  0  0  0  0  0  0  0  0  0  0  0
   10.2575   -1.0598   22.8708 C   0  0  0  0  0  0  0  0  0  0  0  0
   11.7325   -0.9523   22.5936 C   0  0  0  0  0  0  0  0  0  0  0  0
   12.3108   -1.5898   21.5021 C   0  0  0  0  0  0  0  0  0  0  0  0
   13.9236   -1.1492   21.4343 S   0  0  0  0  0  0  0  0  0  0  0  0
   13.9350   -0.1717   22.7963 C   0  0  0  0  0  0  0  0  0  0  0  0
   12.6526   -0.1741   23.3429 C   0  0  0  0  0  0  0  0  0  0  0  0
   12.2902    0.6220   24.5593 C   0  0  0  0  0  0  0  0  0  0  0  0
   10.5892   -3.1579   24.2591 C   0  0  0  0  0  0  0  0  0  0  0  0
  1  2  3  0
  3  2  1  6
  3  4  1  0
  4  5  1  0
  5  6  1  0
  6  7  1  0
  7  8  1  0
  7 15  1  0
  8  9  1  0
  9 10  2  0
 10 11  1  0
 11 12  1  0
 12 13  2  0
 13 14  1  0
 13  9  1  0
 15  3  1  0
M  END
>  <Hit>  (333) 
Mpro-x0387_0

>  <Receptor>  (333) 
Mpro-x0305_0

>  <SCORE>  (333) 
-11.141400000000001

>  <SCORE.norm>  (333) 
-0.74275899999999995

>  <SCORE.heavy>  (333) 
15

>  <OrigSmiles>  (333) 
C#CC1CCCN(Cc2cscc2C)C1

>  <SuCOS_Score>  (333) 
0.47887943724978044

>  <Max_SuCOS_Score>  (333) 
0

>  <Cum_SuCOS_Score>  (333) 
0

>  <TransFSScore_50nM>  (333) 
0.0019059999999999999

>  <TransFSScore_1uM>  (333) 
0.037240000000000002

>  <TransFSScore_10nM>  (333) 
0.0091970000000000003

>  <TransFSScore_200nM>  (333) 
0.065243999999999996

>  <TransFSScore>  (333) 
0.028396749999999998

>  <FeatureSteinScore>  (333) 
0.53971258765705132

>  <XCos_RefMols>  (333) 
x1392_0,x1374_0,x0770_0

>  <XCos_NumHits>  (333) 
3

>  <XCos_Score1>  (333) 
11.6838

>  <XCos_Score2>  (333) 
0.1980

>  <XCos_Score3>  (333) 
0.0169

$$$$
C#CC1CCCN(Cc2cscc2C)C1
     RDKit          3D

 15 16  0  0  0  0  0  0  0  0999 V2000
    8.1760   -5.6294   23.2513 C   0  0  0  0  0  0  0  0  0  0  0  0
    8.9034   -5.0498   24.0185 C   0  0  0  0  0  0  0  0  0  0  0  0
    9.7914   -4.3403   24.9604 C   0  0  2  0  0  0  0  0  0  0  0  0
    9.0015   -3.7650   26.1327 C   0  0  0  0  0  0  0  0  0  0  0  0
    8.2215   -2.4885   25.7866 C   0  0  0  0  0  0  0  0  0  0  0  0
    8.4623   -1.9886   24.3508 C   0  0  0  0  0  0  0  0  0  0  0  0
    9.9054   -1.9716   24.0602 N   0  0  0  0  0  0  0  0  0  0  0  0
   10.2741   -1.1412   22.8951 C   0  0  0  0  0  0  0  0  0  0  0  0
   11.7474   -1.0111   22.6185 C   0  0  0  0  0  0  0  0  0  0  0  0
   12.3312   -1.6179   21.5126 C   0  0  0  0  0  0  0  0  0  0  0  0
   13.9388   -1.1577   21.4526 S   0  0  0  0  0  0  0  0  0  0  0  0
   13.9413   -0.2103   22.8358 C   0  0  0  0  0  0  0  0  0  0  0  0
   12.6597   -0.2391   23.3837 C   0  0  0  0  0  0  0  0  0  0  0  0
   12.2902    0.5259   24.6178 C   0  0  0  0  0  0  0  0  0  0  0  0
   10.6206   -3.2602   24.2477 C   0  0  0  0  0  0  0  0  0  0  0  0
  1  2  3  0
  3  2  1  6
  3  4  1  0
  4  5  1  0
  5  6  1  0
  6  7  1  0
  7  8  1  0
  7 15  1  0
  8  9  1  0
  9 10  2  0
 10 11  1  0
 11 12  1  0
 12 13  2  0
 13 14  1  0
 13  9  1  0
 15  3  1  0
M  END
>  <Hit>  (334) 
Mpro-x0387_0

>  <Receptor>  (334) 
Mpro-x0305_0

>  <SCORE>  (334) 
-11.1753

>  <SCORE.norm>  (334) 
-0.74501700000000004

>  <SCORE.heavy>  (334) 
15

>  <OrigSmiles>  (334) 
C#CC1CCCN(Cc2cscc2C)C1

>  <SuCOS_Score>  (334) 
0.49678804360257678

>  <Max_SuCOS_Score>  (334) 
0

>  <Cum_SuCOS_Score>  (334) 
0

>  <TransFSScore_50nM>  (334) 
0.0020049999999999998

>  <TransFSScore_1uM>  (334) 
0.035851000000000001

>  <TransFSScore_10nM>  (334) 
0.0087270000000000004

>  <TransFSScore_200nM>  (334) 
0.069773000000000002

>  <TransFSScore>  (334) 
0.029089

>  <FeatureSteinScore>  (334) 
0.532334570464292

>  <XCos_RefMols>  (334) 
x1392_0,x1374_0,x0770_0

>  <XCos_NumHits>  (334) 
3

>  <XCos_Score1>  (334) 
11.6611

>  <XCos_Score2>  (334) 
0.1976

>  <XCos_Score3>  (334) 
0.0169

$$$$
C#CC1CCCN(Cc2cscc2C)C1
     RDKit          3D

 15 16  0  0  0  0  0  0  0  0999 V2000
    8.0032   -5.6122   23.2468 C   0  0  0  0  0  0  0  0  0  0  0  0
    8.7425   -4.9981   23.9748 C   0  0  0  0  0  0  0  0  0  0  0  0
    9.6492   -4.2493   24.8672 C   0  0  2  0  0  0  0  0  0  0  0  0
    8.8791   -3.6016   26.0147 C   0  0  0  0  0  0  0  0  0  0  0  0
    8.1102   -2.3363   25.6079 C   0  0  0  0  0  0  0  0  0  0  0  0
    8.3406   -1.9182   24.1446 C   0  0  0  0  0  0  0  0  0  0  0  0
    9.7805   -1.9345   23.8382 N   0  0  0  0  0  0  0  0  0  0  0  0
   10.1457   -1.1733   22.6258 C   0  0  0  0  0  0  0  0  0  0  0  0
   11.6101   -0.8748   22.4514 C   0  0  0  0  0  0  0  0  0  0  0  0
   12.3656   -1.5108   21.4732 C   0  0  0  0  0  0  0  0  0  0  0  0
   13.9011   -0.8461   21.4849 S   0  0  0  0  0  0  0  0  0  0  0  0
   13.6561    0.2344   22.7433 C   0  0  0  0  0  0  0  0  0  0  0  0
   12.3432    0.0905   23.1893 C   0  0  0  0  0  0  0  0  0  0  0  0
   11.7676    0.9251   24.2925 C   0  0  0  0  0  0  0  0  0  0  0  0
   10.4828   -3.2197   24.0880 C   0  0  0  0  0  0  0  0  0  0  0  0
  1  2  3  0
  3  2  1  6
  3  4  1  0
  4  5  1  0
  5  6  1  0
  6  7  1  0
  7  8  1  0
  7 15  1  0
  8  9  1  0
  9 10  2  0
 10 11  1  0
 11 12  1  0
 12 13  2  0
 13 14  1  0
 13  9  1  0
 15  3  1  0
M  END
>  <Hit>  (335) 
Mpro-x0387_0

>  <Receptor>  (335) 
Mpro-x1249_0

>  <SCORE>  (335) 
-11.719099999999999

>  <SCORE.norm>  (335) 
-0.78127500000000005

>  <SCORE.heavy>  (335) 
15

>  <OrigSmiles>  (335) 
C#CC1CCCN(Cc2cscc2C)C1

>  <SuCOS_Score>  (335) 
0.45039540923180393

>  <Max_SuCOS_Score>  (335) 
0

>  <Cum_SuCOS_Score>  (335) 
0

>  <TransFSScore_50nM>  (335) 
0.000736

>  <TransFSScore_1uM>  (335) 
0.030823

>  <TransFSScore_10nM>  (335) 
0.013879000000000001

>  <TransFSScore_200nM>  (335) 
0.033309999999999999

>  <TransFSScore>  (335) 
0.019687

>  <FeatureSteinScore>  (335) 
0.58999578786219053

>  <XCos_RefMols>  (335) 
x1392_0,x0874_0,x1374_0

>  <XCos_NumHits>  (335) 
3

>  <XCos_Score1>  (335) 
12.1256

>  <XCos_Score2>  (335) 
0.2740

>  <XCos_Score3>  (335) 
0.0226

$$$$
C#CC1CCCN(Cc2cscc2C)C1
     RDKit          3D

 15 16  0  0  0  0  0  0  0  0999 V2000
    6.2199   -2.3537   25.0339 C   0  0  0  0  0  0  0  0  0  0  0  0
    6.8401   -3.0226   24.2454 C   0  0  0  0  0  0  0  0  0  0  0  0
    7.5997   -3.8387   23.2779 C   0  0  2  0  0  0  0  0  0  0  0  0
    8.5865   -4.7591   23.9908 C   0  0  0  0  0  0  0  0  0  0  0  0
    9.8481   -4.0431   24.4940 C   0  0  0  0  0  0  0  0  0  0  0  0
    9.9122   -2.5564   24.1005 C   0  0  0  0  0  0  0  0  0  0  0  0
    9.5995   -2.4015   22.6702 N   0  0  0  0  0  0  0  0  0  0  0  0
   10.0246   -1.1070   22.0989 C   0  0  0  0  0  0  0  0  0  0  0  0
   11.4906   -0.7872   22.2102 C   0  0  0  0  0  0  0  0  0  0  0  0
   12.4389   -1.4745   21.4614 C   0  0  0  0  0  0  0  0  0  0  0  0
   13.9326   -0.7744   21.7412 S   0  0  0  0  0  0  0  0  0  0  0  0
   13.4216    0.3884   22.8354 C   0  0  0  0  0  0  0  0  0  0  0  0
   12.0457    0.2462   23.0088 C   0  0  0  0  0  0  0  0  0  0  0  0
   11.2457    1.1447   23.9018 C   0  0  0  0  0  0  0  0  0  0  0  0
    8.2971   -2.9614   22.2261 C   0  0  0  0  0  0  0  0  0  0  0  0
  1  2  3  0
  3  2  1  1
  3  4  1  0
  4  5  1  0
  5  6  1  0
  6  7  1  0
  7  8  1  0
  7 15  1  0
  8  9  1  0
  9 10  2  0
 10 11  1  0
 11 12  1  0
 12 13  2  0
 13 14  1  0
 13  9  1  0
 15  3  1  0
M  END
>  <Hit>  (336) 
Mpro-x0387_0

>  <Receptor>  (336) 
Mpro-x1249_0

>  <SCORE>  (336) 
-11.7301

>  <SCORE.norm>  (336) 
-0.78200599999999998

>  <SCORE.heavy>  (336) 
15

>  <OrigSmiles>  (336) 
C#CC1CCCN(Cc2cscc2C)C1

>  <SuCOS_Score>  (336) 
0.34953803404209238

>  <Max_SuCOS_Score>  (336) 
0

>  <Cum_SuCOS_Score>  (336) 
0

>  <TransFSScore_50nM>  (336) 
0.0017849999999999999

>  <TransFSScore_1uM>  (336) 
0.047322000000000003

>  <TransFSScore_10nM>  (336) 
0.027310000000000001

>  <TransFSScore_200nM>  (336) 
0.016879000000000002

>  <TransFSScore>  (336) 
0.023324000000000004

>  <FeatureSteinScore>  (336) 
0.56233432398505456

>  <XCos_RefMols>  (336) 
x1392_0,x0874_0

>  <XCos_NumHits>  (336) 
2

>  <XCos_Score1>  (336) 
13.0962

>  <XCos_Score2>  (336) 
0.1480

>  <XCos_Score3>  (336) 
0.0113

$$$$
C#CC1CCCN(Cc2cscc2C)C1
     RDKit          3D

 15 16  0  0  0  0  0  0  0  0999 V2000
    7.9269   -5.4998   23.2013 C   0  0  0  0  0  0  0  0  0  0  0  0
    8.6860   -4.9205   23.9375 C   0  0  0  0  0  0  0  0  0  0  0  0
    9.6146   -4.2082   24.8371 C   0  0  2  0  0  0  0  0  0  0  0  0
    8.8673   -3.5705   26.0050 C   0  0  0  0  0  0  0  0  0  0  0  0
    8.1192   -2.2826   25.6321 C   0  0  0  0  0  0  0  0  0  0  0  0
    8.3446   -1.8379   24.1758 C   0  0  0  0  0  0  0  0  0  0  0  0
    9.7812   -1.8750   23.8559 N   0  0  0  0  0  0  0  0  0  0  0  0
   10.1501   -1.0952   22.6565 C   0  0  0  0  0  0  0  0  0  0  0  0
   11.6200   -0.8368   22.4650 C   0  0  0  0  0  0  0  0  0  0  0  0
   12.3490   -1.5019   21.4861 C   0  0  0  0  0  0  0  0  0  0  0  0
   13.9013   -0.8775   21.4763 S   0  0  0  0  0  0  0  0  0  0  0  0
   13.6970    0.2213   22.7261 C   0  0  0  0  0  0  0  0  0  0  0  0
   12.3853    0.1162   23.1862 C   0  0  0  0  0  0  0  0  0  0  0  0
   11.8426    0.9762   24.2864 C   0  0  0  0  0  0  0  0  0  0  0  0
   10.4609   -3.1782   24.0721 C   0  0  0  0  0  0  0  0  0  0  0  0
  1  2  3  0
  3  2  1  6
  3  4  1  0
  4  5  1  0
  5  6  1  0
  6  7  1  0
  7  8  1  0
  7 15  1  0
  8  9  1  0
  9 10  2  0
 10 11  1  0
 11 12  1  0
 12 13  2  0
 13 14  1  0
 13  9  1  0
 15  3  1  0
M  END
>  <Hit>  (337) 
Mpro-x0387_0

>  <Receptor>  (337) 
Mpro-x1249_0

>  <SCORE>  (337) 
-11.747999999999999

>  <SCORE.norm>  (337) 
-0.78320299999999998

>  <SCORE.heavy>  (337) 
15

>  <OrigSmiles>  (337) 
C#CC1CCCN(Cc2cscc2C)C1

>  <SuCOS_Score>  (337) 
0.44492687724910196

>  <Max_SuCOS_Score>  (337) 
0

>  <Cum_SuCOS_Score>  (337) 
0

>  <TransFSScore_50nM>  (337) 
0.00080800000000000002

>  <TransFSScore_1uM>  (337) 
0.033137

>  <TransFSScore_10nM>  (337) 
0.013254999999999999

>  <TransFSScore_200nM>  (337) 
0.033312000000000001

>  <TransFSScore>  (337) 
0.020128

>  <FeatureSteinScore>  (337) 
0.59401999329746114

>  <XCos_RefMols>  (337) 
x1392_0,x0874_0,x1374_0

>  <XCos_NumHits>  (337) 
3

>  <XCos_Score1>  (337) 
12.0693

>  <XCos_Score2>  (337) 
0.2728

>  <XCos_Score3>  (337) 
0.0226

$$$$
C#CC1CCCN(Cc2cscc2C)C1
     RDKit          3D

 15 16  0  0  0  0  0  0  0  0999 V2000
    8.0308   -5.6196   23.2492 C   0  0  0  0  0  0  0  0  0  0  0  0
    8.7830   -5.0176   23.9742 C   0  0  0  0  0  0  0  0  0  0  0  0
    9.7056   -4.2838   24.8627 C   0  0  2  0  0  0  0  0  0  0  0  0
    8.9558   -3.6530   26.0328 C   0  0  0  0  0  0  0  0  0  0  0  0
    8.1820   -2.3807   25.6585 C   0  0  0  0  0  0  0  0  0  0  0  0
    8.3884   -1.9403   24.1982 C   0  0  0  0  0  0  0  0  0  0  0  0
    9.8229   -1.9536   23.8674 N   0  0  0  0  0  0  0  0  0  0  0  0
   10.1687   -1.1741   22.6610 C   0  0  0  0  0  0  0  0  0  0  0  0
   11.6304   -0.8741   22.4669 C   0  0  0  0  0  0  0  0  0  0  0  0
   12.3727   -1.5079   21.4772 C   0  0  0  0  0  0  0  0  0  0  0  0
   13.9077   -0.8420   21.4688 S   0  0  0  0  0  0  0  0  0  0  0  0
   13.6794    0.2360   22.7324 C   0  0  0  0  0  0  0  0  0  0  0  0
   12.3729    0.0904   23.1963 C   0  0  0  0  0  0  0  0  0  0  0  0
   11.8120    0.9225   24.3089 C   0  0  0  0  0  0  0  0  0  0  0  0
   10.5274   -3.2432   24.0856 C   0  0  0  0  0  0  0  0  0  0  0  0
  1  2  3  0
  3  2  1  6
  3  4  1  0
  4  5  1  0
  5  6  1  0
  6  7  1  0
  7  8  1  0
  7 15  1  0
  8  9  1  0
  9 10  2  0
 10 11  1  0
 11 12  1  0
 12 13  2  0
 13 14  1  0
 13  9  1  0
 15  3  1  0
M  END
>  <Hit>  (338) 
Mpro-x0387_0

>  <Receptor>  (338) 
Mpro-x1249_0

>  <SCORE>  (338) 
-11.7501

>  <SCORE.norm>  (338) 
-0.78333900000000001

>  <SCORE.heavy>  (338) 
15

>  <OrigSmiles>  (338) 
C#CC1CCCN(Cc2cscc2C)C1

>  <SuCOS_Score>  (338) 
0.45458054659929881

>  <Max_SuCOS_Score>  (338) 
0

>  <Cum_SuCOS_Score>  (338) 
0

>  <TransFSScore_50nM>  (338) 
0.000812

>  <TransFSScore_1uM>  (338) 
0.030564000000000001

>  <TransFSScore_10nM>  (338) 
0.013034

>  <TransFSScore_200nM>  (338) 
0.033767999999999999

>  <TransFSScore>  (338) 
0.019544499999999999

>  <FeatureSteinScore>  (338) 
0.57661081681977056

>  <XCos_RefMols>  (338) 
x1392_0,x0874_0,x1374_0

>  <XCos_NumHits>  (338) 
3

>  <XCos_Score1>  (338) 
12.0883

>  <XCos_Score2>  (338) 
0.2732

>  <XCos_Score3>  (338) 
0.0226

$$$$
C#CC1CCCN(Cc2cscc2C)C1
     RDKit          3D

 15 16  0  0  0  0  0  0  0  0999 V2000
    7.9993   -5.6151   23.2384 C   0  0  0  0  0  0  0  0  0  0  0  0
    8.7425   -5.0041   23.9651 C   0  0  0  0  0  0  0  0  0  0  0  0
    9.6505   -4.2572   24.8577 C   0  0  2  0  0  0  0  0  0  0  0  0
    8.8819   -3.6105   26.0068 C   0  0  0  0  0  0  0  0  0  0  0  0
    8.1135   -2.3442   25.6024 C   0  0  0  0  0  0  0  0  0  0  0  0
    8.3428   -1.9242   24.1394 C   0  0  0  0  0  0  0  0  0  0  0  0
    9.7824   -1.9411   23.8317 N   0  0  0  0  0  0  0  0  0  0  0  0
   10.1470   -1.1784   22.6201 C   0  0  0  0  0  0  0  0  0  0  0  0
   11.6092   -0.8646   22.4541 C   0  0  0  0  0  0  0  0  0  0  0  0
   12.3790   -1.4993   21.4862 C   0  0  0  0  0  0  0  0  0  0  0  0
   13.9068   -0.8171   21.5042 S   0  0  0  0  0  0  0  0  0  0  0  0
   13.6404    0.2698   22.7526 C   0  0  0  0  0  0  0  0  0  0  0  0
   12.3259    0.1143   23.1902 C   0  0  0  0  0  0  0  0  0  0  0  0
   11.7328    0.9504   24.2828 C   0  0  0  0  0  0  0  0  0  0  0  0
   10.4840   -3.2270   24.0792 C   0  0  0  0  0  0  0  0  0  0  0  0
  1  2  3  0
  3  2  1  6
  3  4  1  0
  4  5  1  0
  5  6  1  0
  6  7  1  0
  7  8  1  0
  7 15  1  0
  8  9  1  0
  9 10  2  0
 10 11  1  0
 11 12  1  0
 12 13  2  0
 13 14  1  0
 13  9  1  0
 15  3  1  0
M  END
>  <Hit>  (339) 
Mpro-x0387_0

>  <Receptor>  (339) 
Mpro-x1249_0

>  <SCORE>  (339) 
-11.7559

>  <SCORE.norm>  (339) 
-0.78373000000000004

>  <SCORE.heavy>  (339) 
15

>  <OrigSmiles>  (339) 
C#CC1CCCN(Cc2cscc2C)C1

>  <SuCOS_Score>  (339) 
0.45032458571945078

>  <Max_SuCOS_Score>  (339) 
0

>  <Cum_SuCOS_Score>  (339) 
0

>  <TransFSScore_50nM>  (339) 
0.00072800000000000002

>  <TransFSScore_1uM>  (339) 
0.030244

>  <TransFSScore_10nM>  (339) 
0.013702000000000001

>  <TransFSScore_200nM>  (339) 
0.033073999999999999

>  <TransFSScore>  (339) 
0.019436999999999999

>  <FeatureSteinScore>  (339) 
0.59224348446307551

>  <XCos_RefMols>  (339) 
x1392_0,x0874_0,x1374_0

>  <XCos_NumHits>  (339) 
3

>  <XCos_Score1>  (339) 
12.1668

>  <XCos_Score2>  (339) 
0.2750

>  <XCos_Score3>  (339) 
0.0226

$$$$
C#CC1CCN(Cc2ccsc2Br)CC1
     RDKit          3D

 15 16  0  0  0  0  0  0  0  0999 V2000
    9.8425   -3.7722   28.6051 C   0  0  0  0  0  0  0  0  0  0  0  0
    9.6770   -4.4345   27.6113 C   0  0  0  0  0  0  0  0  0  0  0  0
    9.4750   -5.2463   26.3967 C   0  0  0  0  0  0  0  0  0  0  0  0
   10.7848   -5.3580   25.6194 C   0  0  0  0  0  0  0  0  0  0  0  0
   11.1385   -4.0648   24.8796 C   0  0  0  0  0  0  0  0  0  0  0  0
    9.9804   -3.4437   24.1912 N   0  0  0  0  0  0  0  0  0  0  0  0
   10.2523   -2.6450   22.9784 C   0  0  0  0  0  0  0  0  0  0  0  0
   11.3303   -1.6043   23.1040 C   0  0  0  0  0  0  0  0  0  0  0  0
   12.5743   -1.6742   22.4357 C   0  0  0  0  0  0  0  0  0  0  0  0
   13.4445   -0.6457   22.7859 C   0  0  0  0  0  0  0  0  0  0  0  0
   12.6675    0.3427   23.8967 S   0  0  0  0  0  0  0  0  0  0  0  0
   11.2263   -0.5035   23.9487 C   0  0  0  0  0  0  0  0  0  0  0  0
    9.7539   -0.0364   25.0723 Br  0  0  0  0  0  0  0  0  0  0  0  0
    8.7664   -4.2753   24.1186 C   0  0  0  0  0  0  0  0  0  0  0  0
    8.3252   -4.6723   25.5405 C   0  0  0  0  0  0  0  0  0  0  0  0
  1  2  3  0
  2  3  1  0
  3  4  1  0
  4  5  1  0
  5  6  1  0
  6  7  1  0
  6 14  1  0
  7  8  1  0
  8  9  1  0
  9 10  2  0
 10 11  1  0
 11 12  1  0
 12 13  1  0
 12  8  2  0
 14 15  1  0
 15  3  1  0
M  END
>  <Hit>  (340) 
Mpro-x0387_0

>  <Receptor>  (340) 
Mpro-x0387_0

>  <SCORE>  (340) 
-10.757899999999999

>  <SCORE.norm>  (340) 
-0.71719299999999997

>  <SCORE.heavy>  (340) 
15

>  <OrigSmiles>  (340) 
C#CC1CCN(Cc2ccsc2Br)CC1

>  <SuCOS_Score>  (340) 
0.73300514987957877

>  <Max_SuCOS_Score>  (340) 
0

>  <Cum_SuCOS_Score>  (340) 
0

>  <TransFSScore_50nM>  (340) 
0.00036699999999999998

>  <TransFSScore_1uM>  (340) 
0.0054349999999999997

>  <TransFSScore_10nM>  (340) 
0.0015499999999999999

>  <TransFSScore_200nM>  (340) 
0.0021689999999999999

>  <TransFSScore>  (340) 
0.00238025

>  <FeatureSteinScore>  (340) 
0.51896668776164012

>  <XCos_RefMols>  (340) 
x0830_0,x1392_0

>  <XCos_NumHits>  (340) 
2

>  <XCos_Score1>  (340) 
11.9020

>  <XCos_Score2>  (340) 
0.2690

>  <XCos_Score3>  (340) 
0.0226

$$$$
C#CC1CCN(Cc2ccsc2Br)CC1
     RDKit          3D

 15 16  0  0  0  0  0  0  0  0999 V2000
    9.8061   -3.8250   28.6112 C   0  0  0  0  0  0  0  0  0  0  0  0
    9.6529   -4.4915   27.6182 C   0  0  0  0  0  0  0  0  0  0  0  0
    9.4668   -5.3079   26.4041 C   0  0  0  0  0  0  0  0  0  0  0  0
   10.7749   -5.3828   25.6197 C   0  0  0  0  0  0  0  0  0  0  0  0
   11.0885   -4.0798   24.8788 C   0  0  0  0  0  0  0  0  0  0  0  0
    9.9099   -3.4907   24.1973 N   0  0  0  0  0  0  0  0  0  0  0  0
   10.1529   -2.6841   22.9836 C   0  0  0  0  0  0  0  0  0  0  0  0
   11.2575   -1.6683   23.0788 C   0  0  0  0  0  0  0  0  0  0  0  0
   12.4877   -1.7756   22.3903 C   0  0  0  0  0  0  0  0  0  0  0  0
   13.3881   -0.7646   22.7139 C   0  0  0  0  0  0  0  0  0  0  0  0
   12.6543    0.2544   23.8264 S   0  0  0  0  0  0  0  0  0  0  0  0
   11.1945   -0.5561   23.9127 C   0  0  0  0  0  0  0  0  0  0  0  0
    9.7533   -0.0414   25.0558 Br  0  0  0  0  0  0  0  0  0  0  0  0
    8.7191   -4.3556   24.1307 C   0  0  0  0  0  0  0  0  0  0  0  0
    8.2968   -4.7655   25.5547 C   0  0  0  0  0  0  0  0  0  0  0  0
  1  2  3  0
  2  3  1  0
  3  4  1  0
  4  5  1  0
  5  6  1  0
  6  7  1  0
  6 14  1  0
  7  8  1  0
  8  9  1  0
  9 10  2  0
 10 11  1  0
 11 12  1  0
 12 13  1  0
 12  8  2  0
 14 15  1  0
 15  3  1  0
M  END
>  <Hit>  (341) 
Mpro-x0387_0

>  <Receptor>  (341) 
Mpro-x0387_0

>  <SCORE>  (341) 
-10.7645

>  <SCORE.norm>  (341) 
-0.71763500000000002

>  <SCORE.heavy>  (341) 
15

>  <OrigSmiles>  (341) 
C#CC1CCN(Cc2ccsc2Br)CC1

>  <SuCOS_Score>  (341) 
0.73259270231790685

>  <Max_SuCOS_Score>  (341) 
0

>  <Cum_SuCOS_Score>  (341) 
0

>  <TransFSScore_50nM>  (341) 
0.00033100000000000002

>  <TransFSScore_1uM>  (341) 
0.0059699999999999996

>  <TransFSScore_10nM>  (341) 
0.0014430000000000001

>  <TransFSScore_200nM>  (341) 
0.0018140000000000001

>  <TransFSScore>  (341) 
0.0023894999999999997

>  <FeatureSteinScore>  (341) 
0.50999900088761252

>  <XCos_RefMols>  (341) 
x0830_0,x1392_0

>  <XCos_NumHits>  (341) 
2

>  <XCos_Score1>  (341) 
11.9273

>  <XCos_Score2>  (341) 
0.2695

>  <XCos_Score3>  (341) 
0.0226

$$$$
C#CC1CCN(Cc2ccsc2Br)CC1
     RDKit          3D

 15 16  0  0  0  0  0  0  0  0999 V2000
    7.7093   -5.6440   21.8847 C   0  0  0  0  0  0  0  0  0  0  0  0
    7.9174   -4.9315   22.8348 C   0  0  0  0  0  0  0  0  0  0  0  0
    8.1716   -4.0583   23.9959 C   0  0  0  0  0  0  0  0  0  0  0  0
    7.4052   -2.7466   23.8406 C   0  0  0  0  0  0  0  0  0  0  0  0
    8.0441   -1.8141   22.8077 C   0  0  0  0  0  0  0  0  0  0  0  0
    9.5219   -1.7393   22.9152 N   0  0  0  0  0  0  0  0  0  0  0  0
   10.1767   -0.4847   22.4913 C   0  0  0  0  0  0  0  0  0  0  0  0
   11.6631   -0.5585   22.2757 C   0  0  0  0  0  0  0  0  0  0  0  0
   12.3168   -1.6528   21.6641 C   0  0  0  0  0  0  0  0  0  0  0  0
   13.7038   -1.5346   21.6655 C   0  0  0  0  0  0  0  0  0  0  0  0
   14.1051   -0.0814   22.4015 S   0  0  0  0  0  0  0  0  0  0  0  0
   12.5434    0.4218   22.7232 C   0  0  0  0  0  0  0  0  0  0  0  0
   12.1107    2.0412   23.6391 Br  0  0  0  0  0  0  0  0  0  0  0  0
   10.1010   -2.3564   24.1211 C   0  0  0  0  0  0  0  0  0  0  0  0
    9.6874   -3.8389   24.1934 C   0  0  0  0  0  0  0  0  0  0  0  0
  1  2  3  0
  2  3  1  0
  3  4  1  0
  4  5  1  0
  5  6  1  0
  6  7  1  0
  6 14  1  0
  7  8  1  0
  8  9  1  0
  9 10  2  0
 10 11  1  0
 11 12  1  0
 12 13  1  0
 12  8  2  0
 14 15  1  0
 15  3  1  0
M  END
>  <Hit>  (342) 
Mpro-x0387_0

>  <Receptor>  (342) 
Mpro-x1249_0

>  <SCORE>  (342) 
-11.162800000000001

>  <SCORE.norm>  (342) 
-0.74418799999999996

>  <SCORE.heavy>  (342) 
15

>  <OrigSmiles>  (342) 
C#CC1CCN(Cc2ccsc2Br)CC1

>  <SuCOS_Score>  (342) 
0.32350355247532125

>  <Max_SuCOS_Score>  (342) 
0

>  <Cum_SuCOS_Score>  (342) 
0

>  <TransFSScore_50nM>  (342) 
0.000861

>  <TransFSScore_1uM>  (342) 
0.021566999999999999

>  <TransFSScore_10nM>  (342) 
0.0044330000000000003

>  <TransFSScore_200nM>  (342) 
0.0065640000000000004

>  <TransFSScore>  (342) 
0.0083562499999999991

>  <FeatureSteinScore>  (342) 
0.50434383722598952

>  <XCos_RefMols>  (342) 
x0678_0,x0749_0

>  <XCos_NumHits>  (342) 
2

>  <XCos_Score1>  (342) 
11.2820

>  <XCos_Score2>  (342) 
0.2550

>  <XCos_Score3>  (342) 
0.0226

$$$$
C#CC1CCN(Cc2ccsc2Br)CC1
     RDKit          3D

 15 16  0  0  0  0  0  0  0  0999 V2000
    7.7940   -2.9056   27.0627 C   0  0  0  0  0  0  0  0  0  0  0  0
    7.9612   -3.5011   26.0278 C   0  0  0  0  0  0  0  0  0  0  0  0
    8.1674   -4.2289   24.7617 C   0  0  0  0  0  0  0  0  0  0  0  0
    9.6595   -4.4523   24.5249 C   0  0  0  0  0  0  0  0  0  0  0  0
   10.3798   -3.1750   24.0838 C   0  0  0  0  0  0  0  0  0  0  0  0
    9.6304   -2.3966   23.0673 N   0  0  0  0  0  0  0  0  0  0  0  0
   10.4126   -1.5795   22.1169 C   0  0  0  0  0  0  0  0  0  0  0  0
   11.2959   -0.5263   22.7265 C   0  0  0  0  0  0  0  0  0  0  0  0
   10.8277    0.4919   23.5886 C   0  0  0  0  0  0  0  0  0  0  0  0
   11.8148    1.4060   23.9459 C   0  0  0  0  0  0  0  0  0  0  0  0
   13.2501    0.9406   23.2124 S   0  0  0  0  0  0  0  0  0  0  0  0
   12.6534   -0.4176   22.4412 C   0  0  0  0  0  0  0  0  0  0  0  0
   13.6936   -1.5396   21.2977 Br  0  0  0  0  0  0  0  0  0  0  0  0
    8.4683   -3.0817   22.4753 C   0  0  0  0  0  0  0  0  0  0  0  0
    7.4856   -3.4905   23.5894 C   0  0  0  0  0  0  0  0  0  0  0  0
  1  2  3  0
  2  3  1  0
  3  4  1  0
  4  5  1  0
  5  6  1  0
  6  7  1  0
  6 14  1  0
  7  8  1  0
  8  9  1  0
  9 10  2  0
 10 11  1  0
 11 12  1  0
 12 13  1  0
 12  8  2  0
 14 15  1  0
 15  3  1  0
M  END
>  <Hit>  (343) 
Mpro-x0387_0

>  <Receptor>  (343) 
Mpro-x1249_0

>  <SCORE>  (343) 
-11.3027

>  <SCORE.norm>  (343) 
-0.75351500000000005

>  <SCORE.heavy>  (343) 
15

>  <OrigSmiles>  (343) 
C#CC1CCN(Cc2ccsc2Br)CC1

>  <SuCOS_Score>  (343) 
0.3938760051384943

>  <Max_SuCOS_Score>  (343) 
0

>  <Cum_SuCOS_Score>  (343) 
0

>  <TransFSScore_50nM>  (343) 
0.00052099999999999998

>  <TransFSScore_1uM>  (343) 
0.014566000000000001

>  <TransFSScore_10nM>  (343) 
0.0034559999999999999

>  <TransFSScore_200nM>  (343) 
0.0033029999999999999

>  <TransFSScore>  (343) 
0.0054615000000000002

>  <FeatureSteinScore>  (343) 
0.68846603523003758

>  <XCos_RefMols>  (343) 
x1392_0,x1249_0,x0774_0

>  <XCos_NumHits>  (343) 
3

>  <XCos_Score1>  (343) 
13.9663

>  <XCos_Score2>  (343) 
0.2367

>  <XCos_Score3>  (343) 
0.0169

$$$$
C#CC1CCN(Cc2ccsc2Br)CC1
     RDKit          3D

 15 16  0  0  0  0  0  0  0  0999 V2000
    7.8101   -5.6994   21.8916 C   0  0  0  0  0  0  0  0  0  0  0  0
    7.9317   -4.9162   22.8002 C   0  0  0  0  0  0  0  0  0  0  0  0
    8.0805   -3.9567   23.9103 C   0  0  0  0  0  0  0  0  0  0  0  0
    7.3062   -2.6771   23.6019 C   0  0  0  0  0  0  0  0  0  0  0  0
    8.0072   -1.8067   22.5550 C   0  0  0  0  0  0  0  0  0  0  0  0
    9.4707   -1.6912   22.7687 N   0  0  0  0  0  0  0  0  0  0  0  0
   10.1350   -0.4556   22.3053 C   0  0  0  0  0  0  0  0  0  0  0  0
   11.6301   -0.5269   22.1608 C   0  0  0  0  0  0  0  0  0  0  0  0
   12.3073   -1.5677   21.4847 C   0  0  0  0  0  0  0  0  0  0  0  0
   13.6931   -1.4665   21.5687 C   0  0  0  0  0  0  0  0  0  0  0  0
   14.0654   -0.0925   22.4564 S   0  0  0  0  0  0  0  0  0  0  0  0
   12.4926    0.3973   22.7424 C   0  0  0  0  0  0  0  0  0  0  0  0
   12.0238    1.9302   23.7812 Br  0  0  0  0  0  0  0  0  0  0  0  0
    9.9652   -2.2072   24.0569 C   0  0  0  0  0  0  0  0  0  0  0  0
    9.5725   -3.6897   24.2058 C   0  0  0  0  0  0  0  0  0  0  0  0
  1  2  3  0
  2  3  1  0
  3  4  1  0
  4  5  1  0
  5  6  1  0
  6  7  1  0
  6 14  1  0
  7  8  1  0
  8  9  1  0
  9 10  2  0
 10 11  1  0
 11 12  1  0
 12 13  1  0
 12  8  2  0
 14 15  1  0
 15  3  1  0
M  END
>  <Hit>  (344) 
Mpro-x0387_0

>  <Receptor>  (344) 
Mpro-x1249_0

>  <SCORE>  (344) 
-11.387499999999999

>  <SCORE.norm>  (344) 
-0.75916499999999998

>  <SCORE.heavy>  (344) 
15

>  <OrigSmiles>  (344) 
C#CC1CCN(Cc2ccsc2Br)CC1

>  <SuCOS_Score>  (344) 
0.30970439998577654

>  <Max_SuCOS_Score>  (344) 
0

>  <Cum_SuCOS_Score>  (344) 
0

>  <TransFSScore_50nM>  (344) 
0.0013320000000000001

>  <TransFSScore_1uM>  (344) 
0.02069

>  <TransFSScore_10nM>  (344) 
0.0052519999999999997

>  <TransFSScore_200nM>  (344) 
0.0067130000000000002

>  <TransFSScore>  (344) 
0.0084967500000000008

>  <FeatureSteinScore>  (344) 
0.48916873991188631

>  <XCos_RefMols>  (344) 
x0678_0,x0749_0

>  <XCos_NumHits>  (344) 
2

>  <XCos_Score1>  (344) 
10.9606

>  <XCos_Score2>  (344) 
0.1238

>  <XCos_Score3>  (344) 
0.0113

$$$$
C#CC1CCN(Cc2ccsc2Br)CC1
     RDKit          3D

 15 16  0  0  0  0  0  0  0  0999 V2000
    7.7030   -5.6182   21.8858 C   0  0  0  0  0  0  0  0  0  0  0  0
    7.9070   -4.8778   22.8152 C   0  0  0  0  0  0  0  0  0  0  0  0
    8.1558   -3.9707   23.9511 C   0  0  0  0  0  0  0  0  0  0  0  0
    7.3887   -2.6650   23.7544 C   0  0  0  0  0  0  0  0  0  0  0  0
    8.0308   -1.7624   22.6971 C   0  0  0  0  0  0  0  0  0  0  0  0
    9.5080   -1.6829   22.8082 N   0  0  0  0  0  0  0  0  0  0  0  0
   10.1633   -0.4405   22.3503 C   0  0  0  0  0  0  0  0  0  0  0  0
   11.6562   -0.5073   22.1826 C   0  0  0  0  0  0  0  0  0  0  0  0
   12.3261   -1.5473   21.4981 C   0  0  0  0  0  0  0  0  0  0  0  0
   13.7127   -1.4416   21.5602 C   0  0  0  0  0  0  0  0  0  0  0  0
   14.0944   -0.0645   22.4391 S   0  0  0  0  0  0  0  0  0  0  0  0
   12.5247    0.4208   22.7487 C   0  0  0  0  0  0  0  0  0  0  0  0
   12.0673    1.9543   23.7918 Br  0  0  0  0  0  0  0  0  0  0  0  0
   10.0830   -2.2638   24.0340 C   0  0  0  0  0  0  0  0  0  0  0  0
    9.6705   -3.7440   24.1481 C   0  0  0  0  0  0  0  0  0  0  0  0
  1  2  3  0
  2  3  1  0
  3  4  1  0
  4  5  1  0
  5  6  1  0
  6  7  1  0
  6 14  1  0
  7  8  1  0
  8  9  1  0
  9 10  2  0
 10 11  1  0
 11 12  1  0
 12 13  1  0
 12  8  2  0
 14 15  1  0
 15  3  1  0
M  END
>  <Hit>  (345) 
Mpro-x0387_0

>  <Receptor>  (345) 
Mpro-x1249_0

>  <SCORE>  (345) 
-11.424899999999999

>  <SCORE.norm>  (345) 
-0.76165799999999995

>  <SCORE.heavy>  (345) 
15

>  <OrigSmiles>  (345) 
C#CC1CCN(Cc2ccsc2Br)CC1

>  <SuCOS_Score>  (345) 
0.31210167620342005

>  <Max_SuCOS_Score>  (345) 
0

>  <Cum_SuCOS_Score>  (345) 
0

>  <TransFSScore_50nM>  (345) 
0.0011670000000000001

>  <TransFSScore_1uM>  (345) 
0.022317

>  <TransFSScore_10nM>  (345) 
0.0049620000000000003

>  <TransFSScore_200nM>  (345) 
0.0065329999999999997

>  <TransFSScore>  (345) 
0.0087447500000000008

>  <FeatureSteinScore>  (345) 
0.49034634350327533

>  <XCos_RefMols>  (345) 
x0678_0,x0749_0

>  <XCos_NumHits>  (345) 
2

>  <XCos_Score1>  (345) 
11.1024

>  <XCos_Score2>  (345) 
0.1255

>  <XCos_Score3>  (345) 
0.0113

$$$$
C#CC1CCN(Cc2ccsc2Br)CC1
     RDKit          3D

 15 16  0  0  0  0  0  0  0  0999 V2000
    8.3633   -3.0557   27.4676 C   0  0  0  0  0  0  0  0  0  0  0  0
    8.4906   -3.6679   26.4367 C   0  0  0  0  0  0  0  0  0  0  0  0
    8.6477   -4.4154   25.1751 C   0  0  0  0  0  0  0  0  0  0  0  0
   10.1296   -4.5652   24.8379 C   0  0  0  0  0  0  0  0  0  0  0  0
   10.7465   -3.2631   24.3196 C   0  0  0  0  0  0  0  0  0  0  0  0
    9.8867   -2.5513   23.3423 N   0  0  0  0  0  0  0  0  0  0  0  0
   10.5549   -1.7182   22.3216 C   0  0  0  0  0  0  0  0  0  0  0  0
   11.5106   -0.6804   22.8420 C   0  0  0  0  0  0  0  0  0  0  0  0
   11.1419    0.3534   23.7332 C   0  0  0  0  0  0  0  0  0  0  0  0
   12.1759    1.2481   23.9943 C   0  0  0  0  0  0  0  0  0  0  0  0
   13.5306    0.7467   23.1412 S   0  0  0  0  0  0  0  0  0  0  0  0
   12.8396   -0.6033   22.4373 C   0  0  0  0  0  0  0  0  0  0  0  0
   13.7509   -1.7553   21.2161 Br  0  0  0  0  0  0  0  0  0  0  0  0
    8.7254   -3.3119   22.8490 C   0  0  0  0  0  0  0  0  0  0  0  0
    7.8465   -3.7441   24.0385 C   0  0  0  0  0  0  0  0  0  0  0  0
  1  2  3  0
  2  3  1  0
  3  4  1  0
  4  5  1  0
  5  6  1  0
  6  7  1  0
  6 14  1  0
  7  8  1  0
  8  9  1  0
  9 10  2  0
 10 11  1  0
 11 12  1  0
 12 13  1  0
 12  8  2  0
 14 15  1  0
 15  3  1  0
M  END
>  <Hit>  (346) 
Mpro-x0387_0

>  <Receptor>  (346) 
Mpro-x0305_0

>  <SCORE>  (346) 
-11.5617

>  <SCORE.norm>  (346) 
-0.77078100000000005

>  <SCORE.heavy>  (346) 
15

>  <OrigSmiles>  (346) 
C#CC1CCN(Cc2ccsc2Br)CC1

>  <SuCOS_Score>  (346) 
0.46769854784475673

>  <Max_SuCOS_Score>  (346) 
0

>  <Cum_SuCOS_Score>  (346) 
0

>  <TransFSScore_50nM>  (346) 
0.00022100000000000001

>  <TransFSScore_1uM>  (346) 
0.010583

>  <TransFSScore_10nM>  (346) 
0.0031310000000000001

>  <TransFSScore_200nM>  (346) 
0.005293

>  <TransFSScore>  (346) 
0.0048070000000000005

>  <FeatureSteinScore>  (346) 
0.64357977159962743

>  <XCos_RefMols>  (346) 
x1392_0,x1249_0,x1336_0

>  <XCos_NumHits>  (346) 
3

>  <XCos_Score1>  (346) 
13.9385

>  <XCos_Score2>  (346) 
0.3150

>  <XCos_Score3>  (346) 
0.0226

$$$$
C#CC1CCN(Cc2ccsc2Br)CC1
     RDKit          3D

 15 16  0  0  0  0  0  0  0  0999 V2000
    8.3212   -3.2284   27.4781 C   0  0  0  0  0  0  0  0  0  0  0  0
    8.4636   -3.8236   26.4393 C   0  0  0  0  0  0  0  0  0  0  0  0
    8.6375   -4.5501   25.1677 C   0  0  0  0  0  0  0  0  0  0  0  0
   10.1227   -4.6680   24.8324 C   0  0  0  0  0  0  0  0  0  0  0  0
   10.7169   -3.3475   24.3344 C   0  0  0  0  0  0  0  0  0  0  0  0
    9.8466   -2.6377   23.3650 N   0  0  0  0  0  0  0  0  0  0  0  0
   10.5020   -1.7780   22.3580 C   0  0  0  0  0  0  0  0  0  0  0  0
   11.4505   -0.7419   22.8946 C   0  0  0  0  0  0  0  0  0  0  0  0
   11.0737    0.2781   23.7983 C   0  0  0  0  0  0  0  0  0  0  0  0
   12.1020    1.1750   24.0739 C   0  0  0  0  0  0  0  0  0  0  0  0
   13.4618    0.6923   23.2181 S   0  0  0  0  0  0  0  0  0  0  0  0
   12.7802   -0.6521   22.4946 C   0  0  0  0  0  0  0  0  0  0  0  0
   13.7011   -1.7831   21.2610 Br  0  0  0  0  0  0  0  0  0  0  0  0
    8.7006   -3.4123   22.8577 C   0  0  0  0  0  0  0  0  0  0  0  0
    7.8268   -3.8773   24.0385 C   0  0  0  0  0  0  0  0  0  0  0  0
  1  2  3  0
  2  3  1  0
  3  4  1  0
  4  5  1  0
  5  6  1  0
  6  7  1  0
  6 14  1  0
  7  8  1  0
  8  9  1  0
  9 10  2  0
 10 11  1  0
 11 12  1  0
 12 13  1  0
 12  8  2  0
 14 15  1  0
 15  3  1  0
M  END
>  <Hit>  (347) 
Mpro-x0387_0

>  <Receptor>  (347) 
Mpro-x0305_0

>  <SCORE>  (347) 
-11.596299999999999

>  <SCORE.norm>  (347) 
-0.77309000000000005

>  <SCORE.heavy>  (347) 
15

>  <OrigSmiles>  (347) 
C#CC1CCN(Cc2ccsc2Br)CC1

>  <SuCOS_Score>  (347) 
0.4881268592769612

>  <Max_SuCOS_Score>  (347) 
0

>  <Cum_SuCOS_Score>  (347) 
0

>  <TransFSScore_50nM>  (347) 
0.000184

>  <TransFSScore_1uM>  (347) 
0.0099489999999999995

>  <TransFSScore_10nM>  (347) 
0.002758

>  <TransFSScore_200nM>  (347) 
0.0042830000000000003

>  <TransFSScore>  (347) 
0.0042935000000000004

>  <FeatureSteinScore>  (347) 
0.66442039997616764

>  <XCos_RefMols>  (347) 
x1392_0,x1249_0,x1336_0

>  <XCos_NumHits>  (347) 
3

>  <XCos_Score1>  (347) 
14.0114

>  <XCos_Score2>  (347) 
0.3958

>  <XCos_Score3>  (347) 
0.0282

$$$$
C#CC1CCN(Cc2ccsc2Br)CC1
     RDKit          3D

 15 16  0  0  0  0  0  0  0  0999 V2000
    8.3179   -3.1385   27.4987 C   0  0  0  0  0  0  0  0  0  0  0  0
    8.4178   -3.7347   26.4555 C   0  0  0  0  0  0  0  0  0  0  0  0
    8.5389   -4.4625   25.1785 C   0  0  0  0  0  0  0  0  0  0  0  0
   10.0120   -4.6653   24.8306 C   0  0  0  0  0  0  0  0  0  0  0  0
   10.6788   -3.3789   24.3350 C   0  0  0  0  0  0  0  0  0  0  0  0
    9.8442   -2.6136   23.3766 N   0  0  0  0  0  0  0  0  0  0  0  0
   10.5410   -1.7878   22.3691 C   0  0  0  0  0  0  0  0  0  0  0  0
   11.4849   -0.7490   22.9086 C   0  0  0  0  0  0  0  0  0  0  0  0
   11.1089    0.2526   23.8330 C   0  0  0  0  0  0  0  0  0  0  0  0
   12.1305    1.1572   24.1084 C   0  0  0  0  0  0  0  0  0  0  0  0
   13.4838    0.7036   23.2267 S   0  0  0  0  0  0  0  0  0  0  0  0
   12.8078   -0.6375   22.4919 C   0  0  0  0  0  0  0  0  0  0  0  0
   13.7245   -1.7384   21.2284 Br  0  0  0  0  0  0  0  0  0  0  0  0
    8.6509   -3.3167   22.8743 C   0  0  0  0  0  0  0  0  0  0  0  0
    7.7605   -3.7367   24.0596 C   0  0  0  0  0  0  0  0  0  0  0  0
  1  2  3  0
  2  3  1  0
  3  4  1  0
  4  5  1  0
  5  6  1  0
  6  7  1  0
  6 14  1  0
  7  8  1  0
  8  9  1  0
  9 10  2  0
 10 11  1  0
 11 12  1  0
 12 13  1  0
 12  8  2  0
 14 15  1  0
 15  3  1  0
M  END
>  <Hit>  (348) 
Mpro-x0387_0

>  <Receptor>  (348) 
Mpro-x0305_0

>  <SCORE>  (348) 
-11.606299999999999

>  <SCORE.norm>  (348) 
-0.77375000000000005

>  <SCORE.heavy>  (348) 
15

>  <OrigSmiles>  (348) 
C#CC1CCN(Cc2ccsc2Br)CC1

>  <SuCOS_Score>  (348) 
0.48650637774510558

>  <Max_SuCOS_Score>  (348) 
0

>  <Cum_SuCOS_Score>  (348) 
0

>  <TransFSScore_50nM>  (348) 
0.000203

>  <TransFSScore_1uM>  (348) 
0.010336

>  <TransFSScore_10nM>  (348) 
0.002908

>  <TransFSScore_200nM>  (348) 
0.0046509999999999998

>  <TransFSScore>  (348) 
0.0045244999999999999

>  <FeatureSteinScore>  (348) 
0.66177638127003702

>  <XCos_RefMols>  (348) 
x1392_0,x1249_0,x1336_0

>  <XCos_NumHits>  (348) 
3

>  <XCos_Score1>  (348) 
14.0354

>  <XCos_Score2>  (348) 
0.3965

>  <XCos_Score3>  (348) 
0.0282

$$$$
C#CC1CCN(Cc2ccsc2Br)CC1
     RDKit          3D

 15 16  0  0  0  0  0  0  0  0999 V2000
    8.2775   -3.0899   27.4284 C   0  0  0  0  0  0  0  0  0  0  0  0
    8.4210   -3.7014   26.3993 C   0  0  0  0  0  0  0  0  0  0  0  0
    8.5979   -4.4505   25.1412 C   0  0  0  0  0  0  0  0  0  0  0  0
   10.0847   -4.5951   24.8242 C   0  0  0  0  0  0  0  0  0  0  0  0
   10.7034   -3.2914   24.3120 C   0  0  0  0  0  0  0  0  0  0  0  0
    9.8540   -2.5846   23.3220 N   0  0  0  0  0  0  0  0  0  0  0  0
   10.5327   -1.7505   22.3089 C   0  0  0  0  0  0  0  0  0  0  0  0
   11.4632   -0.6960   22.8410 C   0  0  0  0  0  0  0  0  0  0  0  0
   11.0656    0.3301   23.7287 C   0  0  0  0  0  0  0  0  0  0  0  0
   12.0799    1.2433   24.0022 C   0  0  0  0  0  0  0  0  0  0  0  0
   13.4533    0.7676   23.1643 S   0  0  0  0  0  0  0  0  0  0  0  0
   12.7952   -0.5941   22.4515 C   0  0  0  0  0  0  0  0  0  0  0  0
   13.7412   -1.7282   21.2400 Br  0  0  0  0  0  0  0  0  0  0  0  0
    8.7024   -3.3506   22.8145 C   0  0  0  0  0  0  0  0  0  0  0  0
    7.8093   -3.7842   23.9928 C   0  0  0  0  0  0  0  0  0  0  0  0
  1  2  3  0
  2  3  1  0
  3  4  1  0
  4  5  1  0
  5  6  1  0
  6  7  1  0
  6 14  1  0
  7  8  1  0
  8  9  1  0
  9 10  2  0
 10 11  1  0
 11 12  1  0
 12 13  1  0
 12  8  2  0
 14 15  1  0
 15  3  1  0
M  END
>  <Hit>  (349) 
Mpro-x0387_0

>  <Receptor>  (349) 
Mpro-x0305_0

>  <SCORE>  (349) 
-11.640000000000001

>  <SCORE.norm>  (349) 
-0.77599899999999999

>  <SCORE.heavy>  (349) 
15

>  <OrigSmiles>  (349) 
C#CC1CCN(Cc2ccsc2Br)CC1

>  <SuCOS_Score>  (349) 
0.46636006224054627

>  <Max_SuCOS_Score>  (349) 
0

>  <Cum_SuCOS_Score>  (349) 
0

>  <TransFSScore_50nM>  (349) 
0.00021900000000000001

>  <TransFSScore_1uM>  (349) 
0.010730999999999999

>  <TransFSScore_10nM>  (349) 
0.0028830000000000001

>  <TransFSScore_200nM>  (349) 
0.0046499999999999996

>  <TransFSScore>  (349) 
0.0046207499999999999

>  <FeatureSteinScore>  (349) 
0.66225073730157824

>  <XCos_RefMols>  (349) 
x1392_0,x1249_0,x1336_0

>  <XCos_NumHits>  (349) 
3

>  <XCos_Score1>  (349) 
14.0416

>  <XCos_Score2>  (349) 
0.3967

>  <XCos_Score3>  (349) 
0.0282

$$$$
C#CC1CCN(Cc2csc(C)c2)CC1
     RDKit          3D

 15 16  0  0  0  0  0  0  0  0999 V2000
    8.0479   -5.8361   27.5418 C   0  0  0  0  0  0  0  0  0  0  0  0
    8.3251   -5.6311   26.3865 C   0  0  0  0  0  0  0  0  0  0  0  0
    8.6644   -5.3803   24.9738 C   0  0  0  0  0  0  0  0  0  0  0  0
   10.0470   -4.7311   24.8500 C   0  0  0  0  0  0  0  0  0  0  0  0
    9.9223   -3.2480   24.5513 C   0  0  0  0  0  0  0  0  0  0  0  0
    9.2918   -3.0812   23.2326 N   0  0  0  0  0  0  0  0  0  0  0  0
    9.2777   -1.6636   22.8515 C   0  0  0  0  0  0  0  0  0  0  0  0
   10.6977   -1.2040   22.6456 C   0  0  0  0  0  0  0  0  0  0  0  0
   11.2425   -0.1520   23.3856 C   0  0  0  0  0  0  0  0  0  0  0  0
   12.7934    0.1389   22.8394 S   0  0  0  0  0  0  0  0  0  0  0  0
   12.7982   -1.0469   21.6527 C   0  0  0  0  0  0  0  0  0  0  0  0
   13.9610   -1.3875   20.7826 C   0  0  0  0  0  0  0  0  0  0  0  0
   11.5721   -1.7071   21.6634 C   0  0  0  0  0  0  0  0  0  0  0  0
    7.9737   -3.7467   23.0794 C   0  0  0  0  0  0  0  0  0  0  0  0
    7.5377   -4.5788   24.2970 C   0  0  0  0  0  0  0  0  0  0  0  0
  1  2  3  0
  2  3  1  0
  3  4  1  0
  4  5  1  0
  5  6  1  0
  6  7  1  0
  6 14  1  0
  7  8  1  0
  8  9  2  0
  9 10  1  0
 10 11  1  0
 11 12  1  0
 11 13  2  0
 13  8  1  0
 14 15  1  0
 15  3  1  0
M  END
>  <Hit>  (350) 
Mpro-x0387_0

>  <Receptor>  (350) 
Mpro-x0874_0

>  <SCORE>  (350) 
-10.4665

>  <SCORE.norm>  (350) 
-0.69776400000000005

>  <SCORE.heavy>  (350) 
15

>  <OrigSmiles>  (350) 
C#CC1CCN(Cc2csc(C)c2)CC1

>  <SuCOS_Score>  (350) 
0.46350062622319943

>  <Max_SuCOS_Score>  (350) 
0

>  <Cum_SuCOS_Score>  (350) 
0

>  <TransFSScore_50nM>  (350) 
0.0017060000000000001

>  <TransFSScore_1uM>  (350) 
0.026588000000000001

>  <TransFSScore_10nM>  (350) 
0.012966999999999999

>  <TransFSScore_200nM>  (350) 
0.0064520000000000003

>  <TransFSScore>  (350) 
0.01192825

>  <FeatureSteinScore>  (350) 
0.52275273253274623

>  <XCos_RefMols>  (350) 
x0708_0,x1382_0,x1385_0

>  <XCos_NumHits>  (350) 
3

>  <XCos_Score1>  (350) 
13.4550

>  <XCos_Score2>  (350) 
0.3801

>  <XCos_Score3>  (350) 
0.0282

$$$$
C#CC1CCN(Cc2csc(C)c2)CC1
     RDKit          3D

 15 16  0  0  0  0  0  0  0  0999 V2000
    8.0543   -5.8205   27.5320 C   0  0  0  0  0  0  0  0  0  0  0  0
    8.3305   -5.6080   26.3778 C   0  0  0  0  0  0  0  0  0  0  0  0
    8.6685   -5.3483   24.9664 C   0  0  0  0  0  0  0  0  0  0  0  0
   10.0510   -4.6984   24.8454 C   0  0  0  0  0  0  0  0  0  0  0  0
    9.9262   -3.2135   24.5563 C   0  0  0  0  0  0  0  0  0  0  0  0
    9.2944   -3.0383   23.2393 N   0  0  0  0  0  0  0  0  0  0  0  0
    9.2801   -1.6184   22.8671 C   0  0  0  0  0  0  0  0  0  0  0  0
   10.6981   -1.1645   22.6364 C   0  0  0  0  0  0  0  0  0  0  0  0
   11.2440   -0.0828   23.3314 C   0  0  0  0  0  0  0  0  0  0  0  0
   12.7917    0.1893   22.7668 S   0  0  0  0  0  0  0  0  0  0  0  0
   12.7936   -1.0427   21.6281 C   0  0  0  0  0  0  0  0  0  0  0  0
   13.9531   -1.4153   20.7667 C   0  0  0  0  0  0  0  0  0  0  0  0
   11.5690   -1.7044   21.6708 C   0  0  0  0  0  0  0  0  0  0  0  0
    7.9761   -3.7028   23.0831 C   0  0  0  0  0  0  0  0  0  0  0  0
    7.5412   -4.5425   24.2957 C   0  0  0  0  0  0  0  0  0  0  0  0
  1  2  3  0
  2  3  1  0
  3  4  1  0
  4  5  1  0
  5  6  1  0
  6  7  1  0
  6 14  1  0
  7  8  1  0
  8  9  2  0
  9 10  1  0
 10 11  1  0
 11 12  1  0
 11 13  2  0
 13  8  1  0
 14 15  1  0
 15  3  1  0
M  END
>  <Hit>  (351) 
Mpro-x0387_0

>  <Receptor>  (351) 
Mpro-x0874_0

>  <SCORE>  (351) 
-10.4678

>  <SCORE.norm>  (351) 
-0.69785399999999997

>  <SCORE.heavy>  (351) 
15

>  <OrigSmiles>  (351) 
C#CC1CCN(Cc2csc(C)c2)CC1

>  <SuCOS_Score>  (351) 
0.45818312782010046

>  <Max_SuCOS_Score>  (351) 
0

>  <Cum_SuCOS_Score>  (351) 
0

>  <TransFSScore_50nM>  (351) 
0.0014829999999999999

>  <TransFSScore_1uM>  (351) 
0.027262000000000002

>  <TransFSScore_10nM>  (351) 
0.012284

>  <TransFSScore_200nM>  (351) 
0.0061879999999999999

>  <TransFSScore>  (351) 
0.011804249999999999

>  <FeatureSteinScore>  (351) 
0.53208476331204113

>  <XCos_RefMols>  (351) 
x0072_0,x1382_0,x1385_0

>  <XCos_NumHits>  (351) 
3

>  <XCos_Score1>  (351) 
13.3785

>  <XCos_Score2>  (351) 
0.3779

>  <XCos_Score3>  (351) 
0.0282

$$$$
C#CC1CCN(Cc2csc(C)c2)CC1
     RDKit          3D

 15 16  0  0  0  0  0  0  0  0999 V2000
    8.1041   -5.8273   27.5665 C   0  0  0  0  0  0  0  0  0  0  0  0
    8.3653   -5.6192   26.4080 C   0  0  0  0  0  0  0  0  0  0  0  0
    8.6849   -5.3646   24.9914 C   0  0  0  0  0  0  0  0  0  0  0  0
   10.0708   -4.7263   24.8493 C   0  0  0  0  0  0  0  0  0  0  0  0
    9.9541   -3.2408   24.5595 C   0  0  0  0  0  0  0  0  0  0  0  0
    9.3047   -3.0625   23.2515 N   0  0  0  0  0  0  0  0  0  0  0  0
    9.2968   -1.6431   22.8772 C   0  0  0  0  0  0  0  0  0  0  0  0
   10.7167   -1.1962   22.6446 C   0  0  0  0  0  0  0  0  0  0  0  0
   11.2764   -0.1324   23.3560 C   0  0  0  0  0  0  0  0  0  0  0  0
   12.8221    0.1382   22.7853 S   0  0  0  0  0  0  0  0  0  0  0  0
   12.8058   -1.0718   21.6233 C   0  0  0  0  0  0  0  0  0  0  0  0
   13.9559   -1.4371   20.7464 C   0  0  0  0  0  0  0  0  0  0  0  0
   11.5761   -1.7245   21.6625 C   0  0  0  0  0  0  0  0  0  0  0  0
    7.9789   -3.7163   23.1155 C   0  0  0  0  0  0  0  0  0  0  0  0
    7.5547   -4.5505   24.3358 C   0  0  0  0  0  0  0  0  0  0  0  0
  1  2  3  0
  2  3  1  0
  3  4  1  0
  4  5  1  0
  5  6  1  0
  6  7  1  0
  6 14  1  0
  7  8  1  0
  8  9  2  0
  9 10  1  0
 10 11  1  0
 11 12  1  0
 11 13  2  0
 13  8  1  0
 14 15  1  0
 15  3  1  0
M  END
>  <Hit>  (352) 
Mpro-x0387_0

>  <Receptor>  (352) 
Mpro-x0874_0

>  <SCORE>  (352) 
-10.471299999999999

>  <SCORE.norm>  (352) 
-0.69808599999999998

>  <SCORE.heavy>  (352) 
15

>  <OrigSmiles>  (352) 
C#CC1CCN(Cc2csc(C)c2)CC1

>  <SuCOS_Score>  (352) 
0.46500386767602925

>  <Max_SuCOS_Score>  (352) 
0

>  <Cum_SuCOS_Score>  (352) 
0

>  <TransFSScore_50nM>  (352) 
0.0016149999999999999

>  <TransFSScore_1uM>  (352) 
0.026332999999999999

>  <TransFSScore_10nM>  (352) 
0.01213

>  <TransFSScore_200nM>  (352) 
0.0063619999999999996

>  <TransFSScore>  (352) 
0.011609999999999999

>  <FeatureSteinScore>  (352) 
0.52569737993107357

>  <XCos_RefMols>  (352) 
x0072_0,x1382_0,x1385_0

>  <XCos_NumHits>  (352) 
3

>  <XCos_Score1>  (352) 
13.4753

>  <XCos_Score2>  (352) 
0.3807

>  <XCos_Score3>  (352) 
0.0282

$$$$
C#CC1CCN(Cc2csc(C)c2)CC1
     RDKit          3D

 15 16  0  0  0  0  0  0  0  0999 V2000
    8.0385   -5.7824   27.5089 C   0  0  0  0  0  0  0  0  0  0  0  0
    8.3159   -5.5768   26.3538 C   0  0  0  0  0  0  0  0  0  0  0  0
    8.6550   -5.3256   24.9411 C   0  0  0  0  0  0  0  0  0  0  0  0
   10.0428   -4.6877   24.8165 C   0  0  0  0  0  0  0  0  0  0  0  0
    9.9302   -3.2030   24.5216 C   0  0  0  0  0  0  0  0  0  0  0  0
    9.2988   -3.0277   23.2044 N   0  0  0  0  0  0  0  0  0  0  0  0
    9.2961   -1.6091   22.8267 C   0  0  0  0  0  0  0  0  0  0  0  0
   10.7193   -1.1624   22.6145 C   0  0  0  0  0  0  0  0  0  0  0  0
   11.2703   -0.1015   23.3372 C   0  0  0  0  0  0  0  0  0  0  0  0
   12.8235    0.1700   22.7878 S   0  0  0  0  0  0  0  0  0  0  0  0
   12.8217   -1.0358   21.6213 C   0  0  0  0  0  0  0  0  0  0  0  0
   13.9831   -1.3987   20.7583 C   0  0  0  0  0  0  0  0  0  0  0  0
   11.5913   -1.6877   21.6419 C   0  0  0  0  0  0  0  0  0  0  0  0
    7.9749   -3.6817   23.0519 C   0  0  0  0  0  0  0  0  0  0  0  0
    7.5339   -4.5130   24.2682 C   0  0  0  0  0  0  0  0  0  0  0  0
  1  2  3  0
  2  3  1  0
  3  4  1  0
  4  5  1  0
  5  6  1  0
  6  7  1  0
  6 14  1  0
  7  8  1  0
  8  9  2  0
  9 10  1  0
 10 11  1  0
 11 12  1  0
 11 13  2  0
 13  8  1  0
 14 15  1  0
 15  3  1  0
M  END
>  <Hit>  (353) 
Mpro-x0387_0

>  <Receptor>  (353) 
Mpro-x0874_0

>  <SCORE>  (353) 
-10.477499999999999

>  <SCORE.norm>  (353) 
-0.69850000000000001

>  <SCORE.heavy>  (353) 
15

>  <OrigSmiles>  (353) 
C#CC1CCN(Cc2csc(C)c2)CC1

>  <SuCOS_Score>  (353) 
0.45729760662308133

>  <Max_SuCOS_Score>  (353) 
0

>  <Cum_SuCOS_Score>  (353) 
0

>  <TransFSScore_50nM>  (353) 
0.001516

>  <TransFSScore_1uM>  (353) 
0.027962999999999998

>  <TransFSScore_10nM>  (353) 
0.011764

>  <TransFSScore_200nM>  (353) 
0.0060720000000000001

>  <TransFSScore>  (353) 
0.011828750000000001

>  <FeatureSteinScore>  (353) 
0.52752985440086952

>  <XCos_RefMols>  (353) 
x1392_0,x1382_0,x1385_0

>  <XCos_NumHits>  (353) 
3

>  <XCos_Score1>  (353) 
13.2962

>  <XCos_Score2>  (353) 
0.3756

>  <XCos_Score3>  (353) 
0.0282

$$$$
C#CC1CCN(Cc2csc(C)c2)CC1
     RDKit          3D

 15 16  0  0  0  0  0  0  0  0999 V2000
    8.0516   -5.8629   27.5220 C   0  0  0  0  0  0  0  0  0  0  0  0
    8.3234   -5.6386   26.3690 C   0  0  0  0  0  0  0  0  0  0  0  0
    8.6555   -5.3642   24.9590 C   0  0  0  0  0  0  0  0  0  0  0  0
   10.0431   -4.7252   24.8380 C   0  0  0  0  0  0  0  0  0  0  0  0
    9.9300   -3.2357   24.5683 C   0  0  0  0  0  0  0  0  0  0  0  0
    9.2922   -3.0382   23.2574 N   0  0  0  0  0  0  0  0  0  0  0  0
    9.2886   -1.6136   22.9032 C   0  0  0  0  0  0  0  0  0  0  0  0
   10.7086   -1.1714   22.6626 C   0  0  0  0  0  0  0  0  0  0  0  0
   11.2713   -0.1004   23.3608 C   0  0  0  0  0  0  0  0  0  0  0  0
   12.8162    0.1615   22.7838 S   0  0  0  0  0  0  0  0  0  0  0  0
   12.7957   -1.0616   21.6356 C   0  0  0  0  0  0  0  0  0  0  0  0
   13.9435   -1.4384   20.7605 C   0  0  0  0  0  0  0  0  0  0  0  0
   11.5652   -1.7120   21.6848 C   0  0  0  0  0  0  0  0  0  0  0  0
    7.9670   -3.6888   23.1007 C   0  0  0  0  0  0  0  0  0  0  0  0
    7.5316   -4.5399   24.3053 C   0  0  0  0  0  0  0  0  0  0  0  0
  1  2  3  0
  2  3  1  0
  3  4  1  0
  4  5  1  0
  5  6  1  0
  6  7  1  0
  6 14  1  0
  7  8  1  0
  8  9  2  0
  9 10  1  0
 10 11  1  0
 11 12  1  0
 11 13  2  0
 13  8  1  0
 14 15  1  0
 15  3  1  0
M  END
>  <Hit>  (354) 
Mpro-x0387_0

>  <Receptor>  (354) 
Mpro-x0874_0

>  <SCORE>  (354) 
-10.4849

>  <SCORE.norm>  (354) 
-0.69899100000000003

>  <SCORE.heavy>  (354) 
15

>  <OrigSmiles>  (354) 
C#CC1CCN(Cc2csc(C)c2)CC1

>  <SuCOS_Score>  (354) 
0.4648806862607926

>  <Max_SuCOS_Score>  (354) 
0

>  <Cum_SuCOS_Score>  (354) 
0

>  <TransFSScore_50nM>  (354) 
0.001513

>  <TransFSScore_1uM>  (354) 
0.026852000000000001

>  <TransFSScore_10nM>  (354) 
0.011816999999999999

>  <TransFSScore_200nM>  (354) 
0.0060619999999999997

>  <TransFSScore>  (354) 
0.011561

>  <FeatureSteinScore>  (354) 
0.5345016800486615

>  <XCos_RefMols>  (354) 
x0072_0,x1382_0,x1385_0

>  <XCos_NumHits>  (354) 
3

>  <XCos_Score1>  (354) 
13.4525

>  <XCos_Score2>  (354) 
0.3800

>  <XCos_Score3>  (354) 
0.0282

$$$$
C#CC1CCN(Cc2csc(C)c2)CC1
     RDKit          3D

 15 16  0  0  0  0  0  0  0  0999 V2000
    8.1090   -5.8246   27.6709 C   0  0  0  0  0  0  0  0  0  0  0  0
    8.3713   -5.6456   26.5078 C   0  0  0  0  0  0  0  0  0  0  0  0
    8.6918   -5.4268   25.0854 C   0  0  0  0  0  0  0  0  0  0  0  0
   10.0460   -4.7262   24.9310 C   0  0  0  0  0  0  0  0  0  0  0  0
    9.8591   -3.2599   24.5862 C   0  0  0  0  0  0  0  0  0  0  0  0
    9.2145   -3.1612   23.2675 N   0  0  0  0  0  0  0  0  0  0  0  0
    9.1404   -1.7583   22.8415 C   0  0  0  0  0  0  0  0  0  0  0  0
   10.5410   -1.2248   22.6879 C   0  0  0  0  0  0  0  0  0  0  0  0
   11.0127   -0.1676   23.4695 C   0  0  0  0  0  0  0  0  0  0  0  0
   12.5617    0.2130   22.9754 S   0  0  0  0  0  0  0  0  0  0  0  0
   12.6575   -0.9391   21.7597 C   0  0  0  0  0  0  0  0  0  0  0  0
   13.8590   -1.1995   20.9148 C   0  0  0  0  0  0  0  0  0  0  0  0
   11.4656   -1.6584   21.7187 C   0  0  0  0  0  0  0  0  0  0  0  0
    7.9238   -3.8843   23.1450 C   0  0  0  0  0  0  0  0  0  0  0  0
    7.5293   -4.6939   24.3916 C   0  0  0  0  0  0  0  0  0  0  0  0
  1  2  3  0
  2  3  1  0
  3  4  1  0
  4  5  1  0
  5  6  1  0
  6  7  1  0
  6 14  1  0
  7  8  1  0
  8  9  2  0
  9 10  1  0
 10 11  1  0
 11 12  1  0
 11 13  2  0
 13  8  1  0
 14 15  1  0
 15  3  1  0
M  END
>  <Hit>  (355) 
Mpro-x0387_0

>  <Receptor>  (355) 
Mpro-x1249_0

>  <SCORE>  (355) 
-11.1806

>  <SCORE.norm>  (355) 
-0.74537600000000004

>  <SCORE.heavy>  (355) 
15

>  <OrigSmiles>  (355) 
C#CC1CCN(Cc2csc(C)c2)CC1

>  <SuCOS_Score>  (355) 
0.45876122267096775

>  <Max_SuCOS_Score>  (355) 
0

>  <Cum_SuCOS_Score>  (355) 
0

>  <TransFSScore_50nM>  (355) 
0.001547

>  <TransFSScore_1uM>  (355) 
0.02767

>  <TransFSScore_10nM>  (355) 
0.015585

>  <TransFSScore_200nM>  (355) 
0.0064900000000000001

>  <TransFSScore>  (355) 
0.012823000000000001

>  <FeatureSteinScore>  (355) 
0.54567483377890158

>  <XCos_RefMols>  (355) 
x0708_0,x1382_0,x1385_0

>  <XCos_NumHits>  (355) 
3

>  <XCos_Score1>  (355) 
14.2603

>  <XCos_Score2>  (355) 
0.4028

>  <XCos_Score3>  (355) 
0.0282

$$$$
C#CC1CCN(Cc2csc(C)c2)CC1
     RDKit          3D

 15 16  0  0  0  0  0  0  0  0999 V2000
    8.0494   -5.8768   27.6095 C   0  0  0  0  0  0  0  0  0  0  0  0
    8.3211   -5.6906   26.4497 C   0  0  0  0  0  0  0  0  0  0  0  0
    8.6533   -5.4624   25.0315 C   0  0  0  0  0  0  0  0  0  0  0  0
    9.9952   -4.7352   24.8939 C   0  0  0  0  0  0  0  0  0  0  0  0
    9.7835   -3.2720   24.5498 C   0  0  0  0  0  0  0  0  0  0  0  0
    9.1521   -3.1831   23.2240 N   0  0  0  0  0  0  0  0  0  0  0  0
    9.0553   -1.7811   22.7999 C   0  0  0  0  0  0  0  0  0  0  0  0
   10.4466   -1.2173   22.6718 C   0  0  0  0  0  0  0  0  0  0  0  0
   10.8845   -0.1572   23.4691 C   0  0  0  0  0  0  0  0  0  0  0  0
   12.4324    0.2596   23.0015 S   0  0  0  0  0  0  0  0  0  0  0  0
   12.5703   -0.8799   21.7780 C   0  0  0  0  0  0  0  0  0  0  0  0
   13.7894   -1.1080   20.9492 C   0  0  0  0  0  0  0  0  0  0  0  0
   11.3944   -1.6233   21.7131 C   0  0  0  0  0  0  0  0  0  0  0  0
    7.8773   -3.9311   23.0855 C   0  0  0  0  0  0  0  0  0  0  0  0
    7.4847   -4.7509   24.3259 C   0  0  0  0  0  0  0  0  0  0  0  0
  1  2  3  0
  2  3  1  0
  3  4  1  0
  4  5  1  0
  5  6  1  0
  6  7  1  0
  6 14  1  0
  7  8  1  0
  8  9  2  0
  9 10  1  0
 10 11  1  0
 11 12  1  0
 11 13  2  0
 13  8  1  0
 14 15  1  0
 15  3  1  0
M  END
>  <Hit>  (356) 
Mpro-x0387_0

>  <Receptor>  (356) 
Mpro-x1249_0

>  <SCORE>  (356) 
-11.1936

>  <SCORE.norm>  (356) 
-0.74624000000000001

>  <SCORE.heavy>  (356) 
15

>  <OrigSmiles>  (356) 
C#CC1CCN(Cc2csc(C)c2)CC1

>  <SuCOS_Score>  (356) 
0.43515171087948562

>  <Max_SuCOS_Score>  (356) 
0

>  <Cum_SuCOS_Score>  (356) 
0

>  <TransFSScore_50nM>  (356) 
0.0015009999999999999

>  <TransFSScore_1uM>  (356) 
0.030717000000000001

>  <TransFSScore_10nM>  (356) 
0.015775999999999998

>  <TransFSScore_200nM>  (356) 
0.0056559999999999996

>  <TransFSScore>  (356) 
0.013412500000000001

>  <FeatureSteinScore>  (356) 
0.53203240796424422

>  <XCos_RefMols>  (356) 
x0708_0,x1382_0,x1385_0

>  <XCos_NumHits>  (356) 
3

>  <XCos_Score1>  (356) 
14.1444

>  <XCos_Score2>  (356) 
0.3996

>  <XCos_Score3>  (356) 
0.0282

$$$$
C#CC1CCN(Cc2csc(C)c2)CC1
     RDKit          3D

 15 16  0  0  0  0  0  0  0  0999 V2000
    8.1413   -5.8781   27.6386 C   0  0  0  0  0  0  0  0  0  0  0  0
    8.3926   -5.6734   26.4773 C   0  0  0  0  0  0  0  0  0  0  0  0
    8.6997   -5.4229   25.0572 C   0  0  0  0  0  0  0  0  0  0  0  0
   10.0549   -4.7239   24.9054 C   0  0  0  0  0  0  0  0  0  0  0  0
    9.8703   -3.2493   24.5964 C   0  0  0  0  0  0  0  0  0  0  0  0
    9.2129   -3.1178   23.2869 N   0  0  0  0  0  0  0  0  0  0  0  0
    9.1400   -1.7052   22.8942 C   0  0  0  0  0  0  0  0  0  0  0  0
   10.5405   -1.1821   22.7075 C   0  0  0  0  0  0  0  0  0  0  0  0
   11.0321   -0.1160   23.4645 C   0  0  0  0  0  0  0  0  0  0  0  0
   12.5739    0.2482   22.9370 S   0  0  0  0  0  0  0  0  0  0  0  0
   12.6415   -0.9225   21.7373 C   0  0  0  0  0  0  0  0  0  0  0  0
   13.8262   -1.2024   20.8750 C   0  0  0  0  0  0  0  0  0  0  0  0
   11.4451   -1.6354   21.7285 C   0  0  0  0  0  0  0  0  0  0  0  0
    7.9183   -3.8332   23.1608 C   0  0  0  0  0  0  0  0  0  0  0  0
    7.5332   -4.6699   24.3923 C   0  0  0  0  0  0  0  0  0  0  0  0
  1  2  3  0
  2  3  1  0
  3  4  1  0
  4  5  1  0
  5  6  1  0
  6  7  1  0
  6 14  1  0
  7  8  1  0
  8  9  2  0
  9 10  1  0
 10 11  1  0
 11 12  1  0
 11 13  2  0
 13  8  1  0
 14 15  1  0
 15  3  1  0
M  END
>  <Hit>  (357) 
Mpro-x0387_0

>  <Receptor>  (357) 
Mpro-x1249_0

>  <SCORE>  (357) 
-11.1967

>  <SCORE.norm>  (357) 
-0.74644999999999995

>  <SCORE.heavy>  (357) 
15

>  <OrigSmiles>  (357) 
C#CC1CCN(Cc2csc(C)c2)CC1

>  <SuCOS_Score>  (357) 
0.45732117421340968

>  <Max_SuCOS_Score>  (357) 
0

>  <Cum_SuCOS_Score>  (357) 
0

>  <TransFSScore_50nM>  (357) 
0.0014270000000000001

>  <TransFSScore_1uM>  (357) 
0.028459999999999999

>  <TransFSScore_10nM>  (357) 
0.014803

>  <TransFSScore_200nM>  (357) 
0.0062420000000000002

>  <TransFSScore>  (357) 
0.012733

>  <FeatureSteinScore>  (357) 
0.55839924603559687

>  <XCos_RefMols>  (357) 
x0708_0,x1382_0,x1385_0

>  <XCos_NumHits>  (357) 
3

>  <XCos_Score1>  (357) 
14.1614

>  <XCos_Score2>  (357) 
0.4000

>  <XCos_Score3>  (357) 
0.0282

$$$$
C#CC1CCN(Cc2csc(C)c2)CC1
     RDKit          3D

 15 16  0  0  0  0  0  0  0  0999 V2000
    8.1144   -5.8563   27.6749 C   0  0  0  0  0  0  0  0  0  0  0  0
    8.3801   -5.6798   26.5122 C   0  0  0  0  0  0  0  0  0  0  0  0
    8.7049   -5.4637   25.0904 C   0  0  0  0  0  0  0  0  0  0  0  0
   10.0448   -4.7354   24.9397 C   0  0  0  0  0  0  0  0  0  0  0  0
    9.8290   -3.2757   24.5838 C   0  0  0  0  0  0  0  0  0  0  0  0
    9.1908   -3.1995   23.2605 N   0  0  0  0  0  0  0  0  0  0  0  0
    9.0896   -1.8015   22.8246 C   0  0  0  0  0  0  0  0  0  0  0  0
   10.4793   -1.2364   22.6852 C   0  0  0  0  0  0  0  0  0  0  0  0
   10.9164   -0.1638   23.4661 C   0  0  0  0  0  0  0  0  0  0  0  0
   12.4622    0.2498   22.9891 S   0  0  0  0  0  0  0  0  0  0  0  0
   12.6001   -0.9069   21.7819 C   0  0  0  0  0  0  0  0  0  0  0  0
   13.8180   -1.1442   20.9538 C   0  0  0  0  0  0  0  0  0  0  0  0
   11.4259   -1.6539   21.7304 C   0  0  0  0  0  0  0  0  0  0  0  0
    7.9166   -3.9508   23.1349 C   0  0  0  0  0  0  0  0  0  0  0  0
    7.5315   -4.7603   24.3844 C   0  0  0  0  0  0  0  0  0  0  0  0
  1  2  3  0
  2  3  1  0
  3  4  1  0
  4  5  1  0
  5  6  1  0
  6  7  1  0
  6 14  1  0
  7  8  1  0
  8  9  2  0
  9 10  1  0
 10 11  1  0
 11 12  1  0
 11 13  2  0
 13  8  1  0
 14 15  1  0
 15  3  1  0
M  END
>  <Hit>  (358) 
Mpro-x0387_0

>  <Receptor>  (358) 
Mpro-x1249_0

>  <SCORE>  (358) 
-11.2143

>  <SCORE.norm>  (358) 
-0.74762099999999998

>  <SCORE.heavy>  (358) 
15

>  <OrigSmiles>  (358) 
C#CC1CCN(Cc2csc(C)c2)CC1

>  <SuCOS_Score>  (358) 
0.44657081320334113

>  <Max_SuCOS_Score>  (358) 
0

>  <Cum_SuCOS_Score>  (358) 
0

>  <TransFSScore_50nM>  (358) 
0.001586

>  <TransFSScore_1uM>  (358) 
0.027577000000000001

>  <TransFSScore_10nM>  (358) 
0.016889000000000001

>  <TransFSScore_200nM>  (358) 
0.006195

>  <TransFSScore>  (358) 
0.01306175

>  <FeatureSteinScore>  (358) 
0.53603582499566305

>  <XCos_RefMols>  (358) 
x0708_0,x1382_0,x1385_0

>  <XCos_NumHits>  (358) 
3

>  <XCos_Score1>  (358) 
14.3505

>  <XCos_Score2>  (358) 
0.4054

>  <XCos_Score3>  (358) 
0.0282

$$$$
C#CC1CCN(Cc2csc(C)c2)CC1
     RDKit          3D

 15 16  0  0  0  0  0  0  0  0999 V2000
    8.0995   -5.8511   27.6760 C   0  0  0  0  0  0  0  0  0  0  0  0
    8.3616   -5.6717   26.5129 C   0  0  0  0  0  0  0  0  0  0  0  0
    8.6822   -5.4525   25.0906 C   0  0  0  0  0  0  0  0  0  0  0  0
   10.0262   -4.7324   24.9373 C   0  0  0  0  0  0  0  0  0  0  0  0
    9.8184   -3.2700   24.5874 C   0  0  0  0  0  0  0  0  0  0  0  0
    9.1757   -3.1851   23.2668 N   0  0  0  0  0  0  0  0  0  0  0  0
    9.0817   -1.7848   22.8362 C   0  0  0  0  0  0  0  0  0  0  0  0
   10.4744   -1.2267   22.6984 C   0  0  0  0  0  0  0  0  0  0  0  0
   10.9238   -0.1718   23.4963 C   0  0  0  0  0  0  0  0  0  0  0  0
   12.4694    0.2401   23.0170 S   0  0  0  0  0  0  0  0  0  0  0  0
   12.5917   -0.8948   21.7876 C   0  0  0  0  0  0  0  0  0  0  0  0
   13.8026   -1.1248   20.9474 C   0  0  0  0  0  0  0  0  0  0  0  0
   11.4120   -1.6328   21.7299 C   0  0  0  0  0  0  0  0  0  0  0  0
    7.8962   -3.9277   23.1435 C   0  0  0  0  0  0  0  0  0  0  0  0
    7.5107   -4.7391   24.3917 C   0  0  0  0  0  0  0  0  0  0  0  0
  1  2  3  0
  2  3  1  0
  3  4  1  0
  4  5  1  0
  5  6  1  0
  6  7  1  0
  6 14  1  0
  7  8  1  0
  8  9  2  0
  9 10  1  0
 10 11  1  0
 11 12  1  0
 11 13  2  0
 13  8  1  0
 14 15  1  0
 15  3  1  0
M  END
>  <Hit>  (359) 
Mpro-x0387_0

>  <Receptor>  (359) 
Mpro-x1249_0

>  <SCORE>  (359) 
-11.254799999999999

>  <SCORE.norm>  (359) 
-0.75031999999999999

>  <SCORE.heavy>  (359) 
15

>  <OrigSmiles>  (359) 
C#CC1CCN(Cc2csc(C)c2)CC1

>  <SuCOS_Score>  (359) 
0.44841684209970223

>  <Max_SuCOS_Score>  (359) 
0

>  <Cum_SuCOS_Score>  (359) 
0

>  <TransFSScore_50nM>  (359) 
0.0015269999999999999

>  <TransFSScore_1uM>  (359) 
0.027813999999999998

>  <TransFSScore_10nM>  (359) 
0.01609

>  <TransFSScore_200nM>  (359) 
0.0062009999999999999

>  <TransFSScore>  (359) 
0.012907999999999999

>  <FeatureSteinScore>  (359) 
0.54562777185303446

>  <XCos_RefMols>  (359) 
x0708_0,x1382_0,x1385_0

>  <XCos_NumHits>  (359) 
3

>  <XCos_Score1>  (359) 
14.3478

>  <XCos_Score2>  (359) 
0.4053

>  <XCos_Score3>  (359) 
0.0282

$$$$
C#CC1CCN(Cc2cscc2C)CC1
     RDKit          3D

 15 16  0  0  0  0  0  0  0  0999 V2000
    8.0164   -3.6519   27.2756 C   0  0  0  0  0  0  0  0  0  0  0  0
    8.4184   -4.1335   26.2459 C   0  0  0  0  0  0  0  0  0  0  0  0
    8.9096   -4.7225   24.9851 C   0  0  0  0  0  0  0  0  0  0  0  0
   10.3787   -4.4005   24.7677 C   0  0  0  0  0  0  0  0  0  0  0  0
   10.5266   -2.9250   24.4413 C   0  0  0  0  0  0  0  0  0  0  0  0
    9.9055   -2.6520   23.1358 N   0  0  0  0  0  0  0  0  0  0  0  0
   10.1245   -1.2501   22.7627 C   0  0  0  0  0  0  0  0  0  0  0  0
   11.5929   -1.0109   22.5426 C   0  0  0  0  0  0  0  0  0  0  0  0
   12.2742   -1.6207   21.4901 C   0  0  0  0  0  0  0  0  0  0  0  0
   13.8823   -1.1831   21.5790 S   0  0  0  0  0  0  0  0  0  0  0  0
   13.7591   -0.2224   22.9471 C   0  0  0  0  0  0  0  0  0  0  0  0
   12.4325   -0.2327   23.3745 C   0  0  0  0  0  0  0  0  0  0  0  0
   11.9678    0.5045   24.5936 C   0  0  0  0  0  0  0  0  0  0  0  0
    8.4660   -2.9569   23.1045 C   0  0  0  0  0  0  0  0  0  0  0  0
    8.0488   -4.2575   23.8076 C   0  0  0  0  0  0  0  0  0  0  0  0
  1  2  3  0
  2  3  1  0
  3  4  1  0
  4  5  1  0
  5  6  1  0
  6  7  1  0
  6 14  1  0
  7  8  1  0
  8  9  2  0
  9 10  1  0
 10 11  1  0
 11 12  2  0
 12 13  1  0
 12  8  1  0
 14 15  1  0
 15  3  1  0
M  END
>  <Hit>  (360) 
Mpro-x0387_0

>  <Receptor>  (360) 
Mpro-x0305_0

>  <SCORE>  (360) 
-10.147500000000001

>  <SCORE.norm>  (360) 
-0.67650200000000005

>  <SCORE.heavy>  (360) 
15

>  <OrigSmiles>  (360) 
C#CC1CCN(Cc2cscc2C)CC1

>  <SuCOS_Score>  (360) 
0.48636125656516721

>  <Max_SuCOS_Score>  (360) 
0

>  <Cum_SuCOS_Score>  (360) 
0

>  <TransFSScore_50nM>  (360) 
0.0023379999999999998

>  <TransFSScore_1uM>  (360) 
0.032275999999999999

>  <TransFSScore_10nM>  (360) 
0.016660000000000001

>  <TransFSScore_200nM>  (360) 
0.014154

>  <TransFSScore>  (360) 
0.016357

>  <FeatureSteinScore>  (360) 
0.51515308706672636

>  <XCos_RefMols>  (360) 
x1392_0,x1336_0,x0874_0

>  <XCos_NumHits>  (360) 
3

>  <XCos_Score1>  (360) 
12.5874

>  <XCos_Score2>  (360) 
0.1422

>  <XCos_Score3>  (360) 
0.0113

$$$$
C#CC1CCN(Cc2cscc2C)CC1
     RDKit          3D

 15 16  0  0  0  0  0  0  0  0999 V2000
    7.9813   -3.6619   27.2586 C   0  0  0  0  0  0  0  0  0  0  0  0
    8.3994   -4.1400   26.2338 C   0  0  0  0  0  0  0  0  0  0  0  0
    8.9113   -4.7261   24.9798 C   0  0  0  0  0  0  0  0  0  0  0  0
   10.3814   -4.3956   24.7827 C   0  0  0  0  0  0  0  0  0  0  0  0
   10.5253   -2.9193   24.4584 C   0  0  0  0  0  0  0  0  0  0  0  0
    9.9208   -2.6496   23.1444 N   0  0  0  0  0  0  0  0  0  0  0  0
   10.1369   -1.2465   22.7744 C   0  0  0  0  0  0  0  0  0  0  0  0
   11.6042   -1.0052   22.5491 C   0  0  0  0  0  0  0  0  0  0  0  0
   12.2831   -1.6165   21.4960 C   0  0  0  0  0  0  0  0  0  0  0  0
   13.8907   -1.1757   21.5786 S   0  0  0  0  0  0  0  0  0  0  0  0
   13.7702   -0.2118   22.9445 C   0  0  0  0  0  0  0  0  0  0  0  0
   12.4450   -0.2234   23.3763 C   0  0  0  0  0  0  0  0  0  0  0  0
   11.9829    0.5161   24.5949 C   0  0  0  0  0  0  0  0  0  0  0  0
    8.4836   -2.9628   23.0934 C   0  0  0  0  0  0  0  0  0  0  0  0
    8.0642   -4.2658   23.7906 C   0  0  0  0  0  0  0  0  0  0  0  0
  1  2  3  0
  2  3  1  0
  3  4  1  0
  4  5  1  0
  5  6  1  0
  6  7  1  0
  6 14  1  0
  7  8  1  0
  8  9  2  0
  9 10  1  0
 10 11  1  0
 11 12  2  0
 12 13  1  0
 12  8  1  0
 14 15  1  0
 15  3  1  0
M  END
>  <Hit>  (361) 
Mpro-x0387_0

>  <Receptor>  (361) 
Mpro-x0305_0

>  <SCORE>  (361) 
-10.1777

>  <SCORE.norm>  (361) 
-0.67851399999999995

>  <SCORE.heavy>  (361) 
15

>  <OrigSmiles>  (361) 
C#CC1CCN(Cc2cscc2C)CC1

>  <SuCOS_Score>  (361) 
0.48475748763211696

>  <Max_SuCOS_Score>  (361) 
0

>  <Cum_SuCOS_Score>  (361) 
0

>  <TransFSScore_50nM>  (361) 
0.0023080000000000002

>  <TransFSScore_1uM>  (361) 
0.032619000000000002

>  <TransFSScore_10nM>  (361) 
0.016742

>  <TransFSScore_200nM>  (361) 
0.013989

>  <TransFSScore>  (361) 
0.016414499999999999

>  <FeatureSteinScore>  (361) 
0.51331482541817142

>  <XCos_RefMols>  (361) 
x1392_0,x1336_0,x0874_0

>  <XCos_NumHits>  (361) 
3

>  <XCos_Score1>  (361) 
12.5767

>  <XCos_Score2>  (361) 
0.1421

>  <XCos_Score3>  (361) 
0.0113

$$$$
C#CC1CCN(Cc2cscc2C)CC1
     RDKit          3D

 15 16  0  0  0  0  0  0  0  0999 V2000
    7.0079   -3.0686   26.2686 C   0  0  0  0  0  0  0  0  0  0  0  0
    7.6973   -3.6364   25.4587 C   0  0  0  0  0  0  0  0  0  0  0  0
    8.5406   -4.3313   24.4668 C   0  0  0  0  0  0  0  0  0  0  0  0
    9.9904   -3.8897   24.5771 C   0  0  0  0  0  0  0  0  0  0  0  0
   10.1203   -2.4624   24.0757 C   0  0  0  0  0  0  0  0  0  0  0  0
    9.8472   -2.4289   22.6303 N   0  0  0  0  0  0  0  0  0  0  0  0
   10.0628   -1.0729   22.1133 C   0  0  0  0  0  0  0  0  0  0  0  0
   11.5334   -0.7581   22.1229 C   0  0  0  0  0  0  0  0  0  0  0  0
   12.4210   -1.4289   21.2827 C   0  0  0  0  0  0  0  0  0  0  0  0
   13.9638   -0.8744   21.5951 S   0  0  0  0  0  0  0  0  0  0  0  0
   13.5510    0.2167   22.7987 C   0  0  0  0  0  0  0  0  0  0  0  0
   12.1714    0.1609   22.9895 C   0  0  0  0  0  0  0  0  0  0  0  0
   11.4606    0.9908   24.0149 C   0  0  0  0  0  0  0  0  0  0  0  0
    8.4900   -2.8832   22.2871 C   0  0  0  0  0  0  0  0  0  0  0  0
    7.9903   -4.1166   23.0544 C   0  0  0  0  0  0  0  0  0  0  0  0
  1  2  3  0
  2  3  1  0
  3  4  1  0
  4  5  1  0
  5  6  1  0
  6  7  1  0
  6 14  1  0
  7  8  1  0
  8  9  2  0
  9 10  1  0
 10 11  1  0
 11 12  2  0
 12 13  1  0
 12  8  1  0
 14 15  1  0
 15  3  1  0
M  END
>  <Hit>  (362) 
Mpro-x0387_0

>  <Receptor>  (362) 
Mpro-x0874_0

>  <SCORE>  (362) 
-10.416399999999999

>  <SCORE.norm>  (362) 
-0.69442800000000005

>  <SCORE.heavy>  (362) 
15

>  <OrigSmiles>  (362) 
C#CC1CCN(Cc2cscc2C)CC1

>  <SuCOS_Score>  (362) 
0.36685318532415589

>  <Max_SuCOS_Score>  (362) 
0

>  <Cum_SuCOS_Score>  (362) 
0

>  <TransFSScore_50nM>  (362) 
0.0017619999999999999

>  <TransFSScore_1uM>  (362) 
0.040843999999999998

>  <TransFSScore_10nM>  (362) 
0.047666

>  <TransFSScore_200nM>  (362) 
0.010447

>  <TransFSScore>  (362) 
0.025179749999999997

>  <FeatureSteinScore>  (362) 
0.53016282864668263

>  <XCos_RefMols>  (362) 
x1392_0,x0874_0,x0774_0

>  <XCos_NumHits>  (362) 
3

>  <XCos_Score1>  (362) 
11.5093

>  <XCos_Score2>  (362) 
0.1300

>  <XCos_Score3>  (362) 
0.0113

$$$$
C#CC1CCN(Cc2cscc2C)CC1
     RDKit          3D

 15 16  0  0  0  0  0  0  0  0999 V2000
    7.1538   -3.2042   26.3943 C   0  0  0  0  0  0  0  0  0  0  0  0
    7.7946   -3.7398   25.5248 C   0  0  0  0  0  0  0  0  0  0  0  0
    8.5797   -4.3946   24.4604 C   0  0  0  0  0  0  0  0  0  0  0  0
   10.0395   -3.9770   24.5230 C   0  0  0  0  0  0  0  0  0  0  0  0
   10.1667   -2.5282   24.0871 C   0  0  0  0  0  0  0  0  0  0  0  0
    9.8263   -2.4189   22.6599 N   0  0  0  0  0  0  0  0  0  0  0  0
   10.0372   -1.0416   22.2008 C   0  0  0  0  0  0  0  0  0  0  0  0
   11.5111   -0.7456   22.1561 C   0  0  0  0  0  0  0  0  0  0  0  0
   12.3688   -1.4719   21.3311 C   0  0  0  0  0  0  0  0  0  0  0  0
   13.9255   -0.9214   21.5740 S   0  0  0  0  0  0  0  0  0  0  0  0
   13.5567    0.2379   22.7270 C   0  0  0  0  0  0  0  0  0  0  0  0
   12.1820    0.2101   22.9554 C   0  0  0  0  0  0  0  0  0  0  0  0
   11.5077    1.1030   23.9523 C   0  0  0  0  0  0  0  0  0  0  0  0
    8.4478   -2.8386   22.3599 C   0  0  0  0  0  0  0  0  0  0  0  0
    7.9667   -4.1026   23.0884 C   0  0  0  0  0  0  0  0  0  0  0  0
  1  2  3  0
  2  3  1  0
  3  4  1  0
  4  5  1  0
  5  6  1  0
  6  7  1  0
  6 14  1  0
  7  8  1  0
  8  9  2  0
  9 10  1  0
 10 11  1  0
 11 12  2  0
 12 13  1  0
 12  8  1  0
 14 15  1  0
 15  3  1  0
M  END
>  <Hit>  (363) 
Mpro-x0387_0

>  <Receptor>  (363) 
Mpro-x0874_0

>  <SCORE>  (363) 
-10.42

>  <SCORE.norm>  (363) 
-0.69466399999999995

>  <SCORE.heavy>  (363) 
15

>  <OrigSmiles>  (363) 
C#CC1CCN(Cc2cscc2C)CC1

>  <SuCOS_Score>  (363) 
0.36885638898127626

>  <Max_SuCOS_Score>  (363) 
0

>  <Cum_SuCOS_Score>  (363) 
0

>  <TransFSScore_50nM>  (363) 
0.0016720000000000001

>  <TransFSScore_1uM>  (363) 
0.042805999999999997

>  <TransFSScore_10nM>  (363) 
0.047676999999999997

>  <TransFSScore_200nM>  (363) 
0.010989000000000001

>  <TransFSScore>  (363) 
0.025785999999999996

>  <FeatureSteinScore>  (363) 
0.54257478972827822

>  <XCos_RefMols>  (363) 
x1392_0,x0874_0,x0774_0

>  <XCos_NumHits>  (363) 
3

>  <XCos_Score1>  (363) 
11.6830

>  <XCos_Score2>  (363) 
0.1320

>  <XCos_Score3>  (363) 
0.0113

$$$$
C#CC1CCN(Cc2cscc2C)CC1
     RDKit          3D

 15 16  0  0  0  0  0  0  0  0999 V2000
    7.1842   -3.0914   26.4223 C   0  0  0  0  0  0  0  0  0  0  0  0
    7.8069   -3.6489   25.5533 C   0  0  0  0  0  0  0  0  0  0  0  0
    8.5683   -4.3314   24.4892 C   0  0  0  0  0  0  0  0  0  0  0  0
   10.0342   -3.9328   24.5248 C   0  0  0  0  0  0  0  0  0  0  0  0
   10.1747   -2.4930   24.0635 C   0  0  0  0  0  0  0  0  0  0  0  0
    9.8158   -2.4023   22.6395 N   0  0  0  0  0  0  0  0  0  0  0  0
   10.0386   -1.0355   22.1551 C   0  0  0  0  0  0  0  0  0  0  0  0
   11.5120   -0.7338   22.1587 C   0  0  0  0  0  0  0  0  0  0  0  0
   12.3918   -1.4201   21.3228 C   0  0  0  0  0  0  0  0  0  0  0  0
   13.9402   -0.8766   21.6270 S   0  0  0  0  0  0  0  0  0  0  0  0
   13.5397    0.2289   22.8215 C   0  0  0  0  0  0  0  0  0  0  0  0
   12.1601    0.1872   23.0157 C   0  0  0  0  0  0  0  0  0  0  0  0
   11.4590    1.0327   24.0350 C   0  0  0  0  0  0  0  0  0  0  0  0
    8.4278   -2.8080   22.3655 C   0  0  0  0  0  0  0  0  0  0  0  0
    7.9400   -4.0534   23.1211 C   0  0  0  0  0  0  0  0  0  0  0  0
  1  2  3  0
  2  3  1  0
  3  4  1  0
  4  5  1  0
  5  6  1  0
  6  7  1  0
  6 14  1  0
  7  8  1  0
  8  9  2  0
  9 10  1  0
 10 11  1  0
 11 12  2  0
 12 13  1  0
 12  8  1  0
 14 15  1  0
 15  3  1  0
M  END
>  <Hit>  (364) 
Mpro-x0387_0

>  <Receptor>  (364) 
Mpro-x0874_0

>  <SCORE>  (364) 
-10.4415

>  <SCORE.norm>  (364) 
-0.69610300000000003

>  <SCORE.heavy>  (364) 
15

>  <OrigSmiles>  (364) 
C#CC1CCN(Cc2cscc2C)CC1

>  <SuCOS_Score>  (364) 
0.3725192207958728

>  <Max_SuCOS_Score>  (364) 
0

>  <Cum_SuCOS_Score>  (364) 
0

>  <TransFSScore_50nM>  (364) 
0.0017849999999999999

>  <TransFSScore_1uM>  (364) 
0.041776000000000001

>  <TransFSScore_10nM>  (364) 
0.047105000000000001

>  <TransFSScore_200nM>  (364) 
0.010200000000000001

>  <TransFSScore>  (364) 
0.025216499999999999

>  <FeatureSteinScore>  (364) 
0.54642273376079553

>  <XCos_RefMols>  (364) 
x1392_0,x0774_0,x0874_0

>  <XCos_NumHits>  (364) 
3

>  <XCos_Score1>  (364) 
11.9205

>  <XCos_Score2>  (364) 
0.1347

>  <XCos_Score3>  (364) 
0.0113

$$$$
C#CC1CCN(Cc2cscc2C)CC1
     RDKit          3D

 15 16  0  0  0  0  0  0  0  0999 V2000
    7.0739   -3.1086   26.2791 C   0  0  0  0  0  0  0  0  0  0  0  0
    7.7380   -3.6598   25.4373 C   0  0  0  0  0  0  0  0  0  0  0  0
    8.5503   -4.3355   24.4069 C   0  0  0  0  0  0  0  0  0  0  0  0
   10.0089   -3.9199   24.5019 C   0  0  0  0  0  0  0  0  0  0  0  0
   10.1517   -2.4794   24.0435 C   0  0  0  0  0  0  0  0  0  0  0  0
    9.8507   -2.3954   22.6058 N   0  0  0  0  0  0  0  0  0  0  0  0
   10.0777   -1.0270   22.1278 C   0  0  0  0  0  0  0  0  0  0  0  0
   11.5525   -0.7325   22.1252 C   0  0  0  0  0  0  0  0  0  0  0  0
   12.4372   -1.4820   21.3511 C   0  0  0  0  0  0  0  0  0  0  0  0
   13.9852   -0.9248   21.6313 S   0  0  0  0  0  0  0  0  0  0  0  0
   13.5783    0.2669   22.7376 C   0  0  0  0  0  0  0  0  0  0  0  0
   12.1966    0.2457   22.9195 C   0  0  0  0  0  0  0  0  0  0  0  0
   11.4894    1.1665   23.8669 C   0  0  0  0  0  0  0  0  0  0  0  0
    8.4799   -2.8176   22.2758 C   0  0  0  0  0  0  0  0  0  0  0  0
    7.9758   -4.0672   23.0135 C   0  0  0  0  0  0  0  0  0  0  0  0
  1  2  3  0
  2  3  1  0
  3  4  1  0
  4  5  1  0
  5  6  1  0
  6  7  1  0
  6 14  1  0
  7  8  1  0
  8  9  2  0
  9 10  1  0
 10 11  1  0
 11 12  2  0
 12 13  1  0
 12  8  1  0
 14 15  1  0
 15  3  1  0
M  END
>  <Hit>  (365) 
Mpro-x0387_0

>  <Receptor>  (365) 
Mpro-x0874_0

>  <SCORE>  (365) 
-10.4588

>  <SCORE.norm>  (365) 
-0.69725599999999999

>  <SCORE.heavy>  (365) 
15

>  <OrigSmiles>  (365) 
C#CC1CCN(Cc2cscc2C)CC1

>  <SuCOS_Score>  (365) 
0.3592514382542808

>  <Max_SuCOS_Score>  (365) 
0

>  <Cum_SuCOS_Score>  (365) 
0

>  <TransFSScore_50nM>  (365) 
0.0019530000000000001

>  <TransFSScore_1uM>  (365) 
0.039014

>  <TransFSScore_10nM>  (365) 
0.037913000000000002

>  <TransFSScore_200nM>  (365) 
0.010014

>  <TransFSScore>  (365) 
0.0222235

>  <FeatureSteinScore>  (365) 
0.52979390495097112

>  <XCos_RefMols>  (365) 
x1392_0,x0874_0,x0774_0

>  <XCos_NumHits>  (365) 
3

>  <XCos_Score1>  (365) 
11.3480

>  <XCos_Score2>  (365) 
0.0641

>  <XCos_Score3>  (365) 
0.0056

$$$$
C#CC1CCN(Cc2cscc2C)CC1
     RDKit          3D

 15 16  0  0  0  0  0  0  0  0999 V2000
    7.0510   -3.1747   26.2788 C   0  0  0  0  0  0  0  0  0  0  0  0
    7.7278   -3.7154   25.4403 C   0  0  0  0  0  0  0  0  0  0  0  0
    8.5559   -4.3766   24.4131 C   0  0  0  0  0  0  0  0  0  0  0  0
   10.0079   -3.9409   24.5183 C   0  0  0  0  0  0  0  0  0  0  0  0
   10.1333   -2.4973   24.0648 C   0  0  0  0  0  0  0  0  0  0  0  0
    9.8400   -2.4133   22.6255 N   0  0  0  0  0  0  0  0  0  0  0  0
   10.0507   -1.0406   22.1527 C   0  0  0  0  0  0  0  0  0  0  0  0
   11.5227   -0.7321   22.1410 C   0  0  0  0  0  0  0  0  0  0  0  0
   12.4029   -1.4428   21.3263 C   0  0  0  0  0  0  0  0  0  0  0  0
   13.9497   -0.8822   21.6064 S   0  0  0  0  0  0  0  0  0  0  0  0
   13.5479    0.2621   22.7635 C   0  0  0  0  0  0  0  0  0  0  0  0
   12.1692    0.2208   22.9635 C   0  0  0  0  0  0  0  0  0  0  0  0
   11.4673    1.0977   23.9555 C   0  0  0  0  0  0  0  0  0  0  0  0
    8.4774   -2.8538   22.2858 C   0  0  0  0  0  0  0  0  0  0  0  0
    7.9863   -4.1124   23.0169 C   0  0  0  0  0  0  0  0  0  0  0  0
  1  2  3  0
  2  3  1  0
  3  4  1  0
  4  5  1  0
  5  6  1  0
  6  7  1  0
  6 14  1  0
  7  8  1  0
  8  9  2  0
  9 10  1  0
 10 11  1  0
 11 12  2  0
 12 13  1  0
 12  8  1  0
 14 15  1  0
 15  3  1  0
M  END
>  <Hit>  (366) 
Mpro-x0387_0

>  <Receptor>  (366) 
Mpro-x0874_0

>  <SCORE>  (366) 
-10.476699999999999

>  <SCORE.norm>  (366) 
-0.69844700000000004

>  <SCORE.heavy>  (366) 
15

>  <OrigSmiles>  (366) 
C#CC1CCN(Cc2cscc2C)CC1

>  <SuCOS_Score>  (366) 
0.36376356111954139

>  <Max_SuCOS_Score>  (366) 
0

>  <Cum_SuCOS_Score>  (366) 
0

>  <TransFSScore_50nM>  (366) 
0.0018240000000000001

>  <TransFSScore_1uM>  (366) 
0.040138

>  <TransFSScore_10nM>  (366) 
0.045518000000000003

>  <TransFSScore_200nM>  (366) 
0.010664999999999999

>  <TransFSScore>  (366) 
0.024536249999999999

>  <FeatureSteinScore>  (366) 
0.53923169814145899

>  <XCos_RefMols>  (366) 
x1392_0,x0874_0,x0774_0

>  <XCos_NumHits>  (366) 
3

>  <XCos_Score1>  (366) 
11.4058

>  <XCos_Score2>  (366) 
0.0644

>  <XCos_Score3>  (366) 
0.0056

$$$$
C#CC1CCN(Cc2cscc2C)CC1
     RDKit          3D

 15 16  0  0  0  0  0  0  0  0999 V2000
    9.4240   -4.1257   28.2411 C   0  0  0  0  0  0  0  0  0  0  0  0
    9.5340   -4.5741   27.1273 C   0  0  0  0  0  0  0  0  0  0  0  0
    9.6682   -5.1238   25.7643 C   0  0  0  0  0  0  0  0  0  0  0  0
   11.0244   -4.7835   25.1691 C   0  0  0  0  0  0  0  0  0  0  0  0
   11.0780   -3.2984   24.8578 C   0  0  0  0  0  0  0  0  0  0  0  0
   10.1283   -2.9946   23.7759 N   0  0  0  0  0  0  0  0  0  0  0  0
   10.2379   -1.5811   23.3983 C   0  0  0  0  0  0  0  0  0  0  0  0
   11.6223   -1.3041   22.8799 C   0  0  0  0  0  0  0  0  0  0  0  0
   12.0913   -1.9085   21.7144 C   0  0  0  0  0  0  0  0  0  0  0  0
   13.6696   -1.4252   21.4683 S   0  0  0  0  0  0  0  0  0  0  0  0
   13.8008   -0.4505   22.8256 C   0  0  0  0  0  0  0  0  0  0  0  0
   12.5909   -0.4921   23.5162 C   0  0  0  0  0  0  0  0  0  0  0  0
   12.3641    0.2478   24.7995 C   0  0  0  0  0  0  0  0  0  0  0  0
    8.7337   -3.3106   24.1243 C   0  0  0  0  0  0  0  0  0  0  0  0
    8.5220   -4.6336   24.8758 C   0  0  0  0  0  0  0  0  0  0  0  0
  1  2  3  0
  2  3  1  0
  3  4  1  0
  4  5  1  0
  5  6  1  0
  6  7  1  0
  6 14  1  0
  7  8  1  0
  8  9  2  0
  9 10  1  0
 10 11  1  0
 11 12  2  0
 12 13  1  0
 12  8  1  0
 14 15  1  0
 15  3  1  0
M  END
>  <Hit>  (367) 
Mpro-x0387_0

>  <Receptor>  (367) 
Mpro-x0387_0

>  <SCORE>  (367) 
-9.51267

>  <SCORE.norm>  (367) 
-0.63417800000000002

>  <SCORE.heavy>  (367) 
15

>  <OrigSmiles>  (367) 
C#CC1CCN(Cc2cscc2C)CC1

>  <SuCOS_Score>  (367) 
0.60060331932620481

>  <Max_SuCOS_Score>  (367) 
0

>  <Cum_SuCOS_Score>  (367) 
0

>  <TransFSScore_50nM>  (367) 
0.0035370000000000002

>  <TransFSScore_1uM>  (367) 
0.036988

>  <TransFSScore_10nM>  (367) 
0.0093229999999999997

>  <TransFSScore_200nM>  (367) 
0.020521000000000001

>  <TransFSScore>  (367) 
0.01759225

>  <FeatureSteinScore>  (367) 
0.3631993484017671

>  <XCos_RefMols>  (367) 
x0072_0,x0770_0

>  <XCos_NumHits>  (367) 
2

>  <XCos_Score1>  (367) 
10.4462

>  <XCos_Score2>  (367) 
0.0000

>  <XCos_Score3>  (367) 
0.0000

$$$$
C#CC1CCN(Cc2cscc2C)CC1
     RDKit          3D

 15 16  0  0  0  0  0  0  0  0999 V2000
    9.4765   -4.1886   28.2600 C   0  0  0  0  0  0  0  0  0  0  0  0
    9.5761   -4.6258   27.1408 C   0  0  0  0  0  0  0  0  0  0  0  0
    9.6975   -5.1619   25.7712 C   0  0  0  0  0  0  0  0  0  0  0  0
   11.0465   -4.8121   25.1652 C   0  0  0  0  0  0  0  0  0  0  0  0
   11.0930   -3.3239   24.8679 C   0  0  0  0  0  0  0  0  0  0  0  0
   10.1312   -3.0121   23.7990 N   0  0  0  0  0  0  0  0  0  0  0  0
   10.2332   -1.5947   23.4341 C   0  0  0  0  0  0  0  0  0  0  0  0
   11.6083   -1.3110   22.8951 C   0  0  0  0  0  0  0  0  0  0  0  0
   12.0645   -1.9168   21.7252 C   0  0  0  0  0  0  0  0  0  0  0  0
   13.6361   -1.4245   21.4550 S   0  0  0  0  0  0  0  0  0  0  0  0
   13.7804   -0.4440   22.8068 C   0  0  0  0  0  0  0  0  0  0  0  0
   12.5807   -0.4906   23.5147 C   0  0  0  0  0  0  0  0  0  0  0  0
   12.3675    0.2526   24.7984 C   0  0  0  0  0  0  0  0  0  0  0  0
    8.7411   -3.3353   24.1588 C   0  0  0  0  0  0  0  0  0  0  0  0
    8.5407   -4.6661   24.8994 C   0  0  0  0  0  0  0  0  0  0  0  0
  1  2  3  0
  2  3  1  0
  3  4  1  0
  4  5  1  0
  5  6  1  0
  6  7  1  0
  6 14  1  0
  7  8  1  0
  8  9  2  0
  9 10  1  0
 10 11  1  0
 11 12  2  0
 12 13  1  0
 12  8  1  0
 14 15  1  0
 15  3  1  0
M  END
>  <Hit>  (368) 
Mpro-x0387_0

>  <Receptor>  (368) 
Mpro-x0387_0

>  <SCORE>  (368) 
-9.5133500000000009

>  <SCORE.norm>  (368) 
-0.63422400000000001

>  <SCORE.heavy>  (368) 
15

>  <OrigSmiles>  (368) 
C#CC1CCN(Cc2cscc2C)CC1

>  <SuCOS_Score>  (368) 
0.604063255539943

>  <Max_SuCOS_Score>  (368) 
0

>  <Cum_SuCOS_Score>  (368) 
0

>  <TransFSScore_50nM>  (368) 
0.00362

>  <TransFSScore_1uM>  (368) 
0.036940000000000001

>  <TransFSScore_10nM>  (368) 
0.0087919999999999995

>  <TransFSScore_200nM>  (368) 
0.021153999999999999

>  <TransFSScore>  (368) 
0.0176265

>  <FeatureSteinScore>  (368) 
0.36175020217608223

>  <XCos_RefMols>  (368) 
x0072_0,x0770_0

>  <XCos_NumHits>  (368) 
2

>  <XCos_Score1>  (368) 
10.4070

>  <XCos_Score2>  (368) 
0.0000

>  <XCos_Score3>  (368) 
0.0000

$$$$
C#CC1CCN(Cc2cscc2C)CC1
     RDKit          3D

 15 16  0  0  0  0  0  0  0  0999 V2000
    9.5387   -4.1889   28.2416 C   0  0  0  0  0  0  0  0  0  0  0  0
    9.6137   -4.6185   27.1175 C   0  0  0  0  0  0  0  0  0  0  0  0
    9.7045   -5.1446   25.7417 C   0  0  0  0  0  0  0  0  0  0  0  0
   11.0511   -4.8158   25.1189 C   0  0  0  0  0  0  0  0  0  0  0  0
   11.1224   -3.3262   24.8337 C   0  0  0  0  0  0  0  0  0  0  0  0
   10.1515   -2.9862   23.7819 N   0  0  0  0  0  0  0  0  0  0  0  0
   10.2759   -1.5679   23.4278 C   0  0  0  0  0  0  0  0  0  0  0  0
   11.6581   -1.3002   22.8987 C   0  0  0  0  0  0  0  0  0  0  0  0
   12.1243   -1.9298   21.7455 C   0  0  0  0  0  0  0  0  0  0  0  0
   13.7010   -1.4494   21.4833 S   0  0  0  0  0  0  0  0  0  0  0  0
   13.8349   -0.4443   22.8180 C   0  0  0  0  0  0  0  0  0  0  0  0
   12.6273   -0.4725   23.5135 C   0  0  0  0  0  0  0  0  0  0  0  0
   12.4034    0.2956   24.7806 C   0  0  0  0  0  0  0  0  0  0  0  0
    8.7607   -3.2854   24.1594 C   0  0  0  0  0  0  0  0  0  0  0  0
    8.5451   -4.6186   24.8914 C   0  0  0  0  0  0  0  0  0  0  0  0
  1  2  3  0
  2  3  1  0
  3  4  1  0
  4  5  1  0
  5  6  1  0
  6  7  1  0
  6 14  1  0
  7  8  1  0
  8  9  2  0
  9 10  1  0
 10 11  1  0
 11 12  2  0
 12 13  1  0
 12  8  1  0
 14 15  1  0
 15  3  1  0
M  END
>  <Hit>  (369) 
Mpro-x0387_0

>  <Receptor>  (369) 
Mpro-x0387_0

>  <SCORE>  (369) 
-9.5216799999999999

>  <SCORE.norm>  (369) 
-0.63477899999999998

>  <SCORE.heavy>  (369) 
15

>  <OrigSmiles>  (369) 
C#CC1CCN(Cc2cscc2C)CC1

>  <SuCOS_Score>  (369) 
0.5974029654700852

>  <Max_SuCOS_Score>  (369) 
0

>  <Cum_SuCOS_Score>  (369) 
0

>  <TransFSScore_50nM>  (369) 
0.0035739999999999999

>  <TransFSScore_1uM>  (369) 
0.037116999999999997

>  <TransFSScore_10nM>  (369) 
0.0087500000000000008

>  <TransFSScore_200nM>  (369) 
0.019477999999999999

>  <TransFSScore>  (369) 
0.017229749999999999

>  <FeatureSteinScore>  (369) 
0.35173493658924104

>  <XCos_RefMols>  (369) 
x0072_0,x0770_0

>  <XCos_NumHits>  (369) 
2

>  <XCos_Score1>  (369) 
10.3669

>  <XCos_Score2>  (369) 
0.0000

>  <XCos_Score3>  (369) 
0.0000

$$$$
C#CCC(=O)C(O)c1cc(Cl)cc(Br)c1
     RDKit          3D

 15 15  0  0  0  0  0  0  0  0999 V2000
    7.2288    5.9436   21.3551 C   0  0  0  0  0  0  0  0  0  0  0  0
    8.1869    6.1197   22.0655 C   0  0  0  0  0  0  0  0  0  0  0  0
    9.3513    6.3335   22.9305 C   0  0  0  0  0  0  0  0  0  0  0  0
    9.6335    5.0880   23.7331 C   0  0  0  0  0  0  0  0  0  0  0  0
    8.9376    4.8571   24.7118 O   0  0  0  0  0  0  0  0  0  0  0  0
   10.7425    4.1092   23.3890 C   0  0  2  0  0  0  0  0  0  0  0  0
   11.7365    4.6829   22.5747 O   0  0  0  0  0  0  0  0  0  0  0  0
   10.1897    2.8419   22.7605 C   0  0  0  0  0  0  0  0  0  0  0  0
    8.9360    2.8461   22.1217 C   0  0  0  0  0  0  0  0  0  0  0  0
    8.4442    1.6774   21.5294 C   0  0  0  0  0  0  0  0  0  0  0  0
    6.8764    1.6880   20.7428 Cl  0  0  0  0  0  0  0  0  0  0  0  0
    9.2038    0.5013   21.5570 C   0  0  0  0  0  0  0  0  0  0  0  0
   10.4587    0.4935   22.1769 C   0  0  0  0  0  0  0  0  0  0  0  0
   11.5323   -1.0966   22.1885 Br  0  0  0  0  0  0  0  0  0  0  0  0
   10.9475    1.6581   22.7772 C   0  0  0  0  0  0  0  0  0  0  0  0
  1  2  3  0
  2  3  1  0
  3  4  1  0
  4  5  2  0
  4  6  1  0
  6  7  1  6
  6  8  1  0
  8  9  2  0
  9 10  1  0
 10 11  1  0
 10 12  2  0
 12 13  1  0
 13 14  1  0
 13 15  2  0
 15  8  1  0
M  END
>  <Hit>  (370) 
Mpro-x0946_0

>  <Receptor>  (370) 
Mpro-x0387_0

>  <SCORE>  (370) 
-10.3086

>  <SCORE.norm>  (370) 
-0.68723900000000004

>  <SCORE.heavy>  (370) 
15

>  <OrigSmiles>  (370) 
C#CCC(=O)C(O)c1cc(Cl)cc(Br)c1

>  <SuCOS_Score>  (370) 
0.26353088620605447

>  <Max_SuCOS_Score>  (370) 
0.27209762006223087

>  <Cum_SuCOS_Score>  (370) 
3.1003002229469319

>  <TransFSScore_50nM>  (370) 
0.0083529999999999993

>  <TransFSScore_1uM>  (370) 
0.025269

>  <TransFSScore_10nM>  (370) 
0.0052769999999999996

>  <TransFSScore_200nM>  (370) 
0.010274

>  <TransFSScore>  (370) 
0.012293249999999999

>  <FeatureSteinScore>  (370) 
0.08418657895413964

>  <XCos_RefMols>  (370) 
x0104_0,x0195_0

>  <XCos_NumHits>  (370) 
2

>  <XCos_Score1>  (370) 
8.9453

>  <XCos_Score2>  (370) 
0.0000

>  <XCos_Score3>  (370) 
0.0000

$$$$
C#CCC(=O)C(O)c1cc(Cl)cc(Br)c1
     RDKit          3D

 15 15  0  0  0  0  0  0  0  0999 V2000
   11.8550    7.0954   26.2345 C   0  0  0  0  0  0  0  0  0  0  0  0
   11.3593    6.5859   25.2608 C   0  0  0  0  0  0  0  0  0  0  0  0
   10.7552    5.9662   24.0772 C   0  0  0  0  0  0  0  0  0  0  0  0
   11.8315    5.3975   23.1866 C   0  0  0  0  0  0  0  0  0  0  0  0
   11.8608    5.7466   22.0148 O   0  0  0  0  0  0  0  0  0  0  0  0
   12.8774    4.4090   23.6714 C   0  0  2  0  0  0  0  0  0  0  0  0
   14.0661    4.4679   22.9206 O   0  0  0  0  0  0  0  0  0  0  0  0
   12.3284    2.9934   23.7095 C   0  0  0  0  0  0  0  0  0  0  0  0
   11.1484    2.7006   24.4178 C   0  0  0  0  0  0  0  0  0  0  0  0
   10.6408    1.3965   24.4310 C   0  0  0  0  0  0  0  0  0  0  0  0
    9.1743    1.0373   25.3237 Cl  0  0  0  0  0  0  0  0  0  0  0  0
   11.2971    0.3790   23.7274 C   0  0  0  0  0  0  0  0  0  0  0  0
   12.4628    0.6659   23.0077 C   0  0  0  0  0  0  0  0  0  0  0  0
   13.3528   -0.7055   22.0034 Br  0  0  0  0  0  0  0  0  0  0  0  0
   12.9763    1.9666   23.0010 C   0  0  0  0  0  0  0  0  0  0  0  0
  1  2  3  0
  2  3  1  0
  3  4  1  0
  4  5  2  0
  4  6  1  0
  6  7  1  6
  6  8  1  0
  8  9  2  0
  9 10  1  0
 10 11  1  0
 10 12  2  0
 12 13  1  0
 13 14  1  0
 13 15  2  0
 15  8  1  0
M  END
>  <Hit>  (371) 
Mpro-x0946_0

>  <Receptor>  (371) 
Mpro-x1249_0

>  <SCORE>  (371) 
-11.0867

>  <SCORE.norm>  (371) 
-0.73911000000000004

>  <SCORE.heavy>  (371) 
15

>  <OrigSmiles>  (371) 
C#CCC(=O)C(O)c1cc(Cl)cc(Br)c1

>  <SuCOS_Score>  (371) 
0.57953088718771595

>  <Max_SuCOS_Score>  (371) 
0.57953088718771595

>  <Cum_SuCOS_Score>  (371) 
3.8505402259032735

>  <TransFSScore_50nM>  (371) 
0.0022360000000000001

>  <TransFSScore_1uM>  (371) 
0.040991

>  <TransFSScore_10nM>  (371) 
0.002457

>  <TransFSScore_200nM>  (371) 
0.0024269999999999999

>  <TransFSScore>  (371) 
0.01202775

>  <FeatureSteinScore>  (371) 
0.3839556692221332

>  <XCos_RefMols>  (371) 
x0104_0

>  <XCos_NumHits>  (371) 
1

>  <XCos_Score1>  (371) 
9.9960

>  <XCos_Score2>  (371) 
0.2824

>  <XCos_Score3>  (371) 
0.0282

$$$$
C#CCC(=O)C(O)c1cc(Cl)cc(Br)c1
     RDKit          3D

 15 15  0  0  0  0  0  0  0  0999 V2000
   12.0346    6.9474   26.3954 C   0  0  0  0  0  0  0  0  0  0  0  0
   11.4817    6.4416   25.4510 C   0  0  0  0  0  0  0  0  0  0  0  0
   10.8096    5.8273   24.3017 C   0  0  0  0  0  0  0  0  0  0  0  0
   11.8324    5.3333   23.3093 C   0  0  0  0  0  0  0  0  0  0  0  0
   11.7729    5.7454   22.1594 O   0  0  0  0  0  0  0  0  0  0  0  0
   12.9293    4.3455   23.6661 C   0  0  2  0  0  0  0  0  0  0  0  0
   14.0422    4.4411   22.8102 O   0  0  0  0  0  0  0  0  0  0  0  0
   12.4012    2.9223   23.7138 C   0  0  0  0  0  0  0  0  0  0  0  0
   11.2312    2.6152   24.4326 C   0  0  0  0  0  0  0  0  0  0  0  0
   10.7427    1.3038   24.4546 C   0  0  0  0  0  0  0  0  0  0  0  0
    9.2887    0.9269   25.3603 Cl  0  0  0  0  0  0  0  0  0  0  0  0
   11.4082    0.2933   23.7496 C   0  0  0  0  0  0  0  0  0  0  0  0
   12.5638    0.5942   23.0196 C   0  0  0  0  0  0  0  0  0  0  0  0
   13.4656   -0.7680   22.0134 Br  0  0  0  0  0  0  0  0  0  0  0  0
   13.0583    1.9022   23.0040 C   0  0  0  0  0  0  0  0  0  0  0  0
  1  2  3  0
  2  3  1  0
  3  4  1  0
  4  5  2  0
  4  6  1  0
  6  7  1  6
  6  8  1  0
  8  9  2  0
  9 10  1  0
 10 11  1  0
 10 12  2  0
 12 13  1  0
 13 14  1  0
 13 15  2  0
 15  8  1  0
M  END
>  <Hit>  (372) 
Mpro-x0946_0

>  <Receptor>  (372) 
Mpro-x1249_0

>  <SCORE>  (372) 
-11.132899999999999

>  <SCORE.norm>  (372) 
-0.74219500000000005

>  <SCORE.heavy>  (372) 
15

>  <OrigSmiles>  (372) 
C#CCC(=O)C(O)c1cc(Cl)cc(Br)c1

>  <SuCOS_Score>  (372) 
0.57301330840691689

>  <Max_SuCOS_Score>  (372) 
0.57301330840691689

>  <Cum_SuCOS_Score>  (372) 
3.8693505520543816

>  <TransFSScore_50nM>  (372) 
0.0025019999999999999

>  <TransFSScore_1uM>  (372) 
0.030193000000000001

>  <TransFSScore_10nM>  (372) 
0.0020019999999999999

>  <TransFSScore_200nM>  (372) 
0.0022160000000000001

>  <TransFSScore>  (372) 
0.0092282500000000003

>  <FeatureSteinScore>  (372) 
0.36907662745699477

>  <XCos_RefMols>  (372) 
x0104_0

>  <XCos_NumHits>  (372) 
1

>  <XCos_Score1>  (372) 
9.8248

>  <XCos_Score2>  (372) 
0.2775

>  <XCos_Score3>  (372) 
0.0282

$$$$
C#CCC(=O)C(O)c1cc(Cl)cc(Br)c1
     RDKit          3D

 15 15  0  0  0  0  0  0  0  0999 V2000
   12.0839    6.8934   26.4172 C   0  0  0  0  0  0  0  0  0  0  0  0
   11.5209    6.4459   25.4496 C   0  0  0  0  0  0  0  0  0  0  0  0
   10.8361    5.9006   24.2734 C   0  0  0  0  0  0  0  0  0  0  0  0
   11.8476    5.3849   23.2804 C   0  0  0  0  0  0  0  0  0  0  0  0
   11.7976    5.7998   22.1311 O   0  0  0  0  0  0  0  0  0  0  0  0
   12.9218    4.3720   23.6358 C   0  0  2  0  0  0  0  0  0  0  0  0
   14.0339    4.4392   22.7762 O   0  0  0  0  0  0  0  0  0  0  0  0
   12.3601    2.9619   23.6885 C   0  0  0  0  0  0  0  0  0  0  0  0
   11.1780    2.6869   24.4004 C   0  0  0  0  0  0  0  0  0  0  0  0
   10.6587    1.3875   24.4269 C   0  0  0  0  0  0  0  0  0  0  0  0
    9.1896    1.0506   25.3240 Cl  0  0  0  0  0  0  0  0  0  0  0  0
   11.3054    0.3572   23.7333 C   0  0  0  0  0  0  0  0  0  0  0  0
   12.4732    0.6263   23.0100 C   0  0  0  0  0  0  0  0  0  0  0  0
   13.3501   -0.7631   22.0191 Br  0  0  0  0  0  0  0  0  0  0  0  0
   12.9983    1.9222   22.9900 C   0  0  0  0  0  0  0  0  0  0  0  0
  1  2  3  0
  2  3  1  0
  3  4  1  0
  4  5  2  0
  4  6  1  0
  6  7  1  6
  6  8  1  0
  8  9  2  0
  9 10  1  0
 10 11  1  0
 10 12  2  0
 12 13  1  0
 13 14  1  0
 13 15  2  0
 15  8  1  0
M  END
>  <Hit>  (373) 
Mpro-x0946_0

>  <Receptor>  (373) 
Mpro-x1249_0

>  <SCORE>  (373) 
-11.1678

>  <SCORE.norm>  (373) 
-0.74451900000000004

>  <SCORE.heavy>  (373) 
15

>  <OrigSmiles>  (373) 
C#CCC(=O)C(O)c1cc(Cl)cc(Br)c1

>  <SuCOS_Score>  (373) 
0.5793658719575131

>  <Max_SuCOS_Score>  (373) 
0.5793658719575131

>  <Cum_SuCOS_Score>  (373) 
3.8659991847598527

>  <TransFSScore_50nM>  (373) 
0.0024789999999999999

>  <TransFSScore_1uM>  (373) 
0.031257

>  <TransFSScore_10nM>  (373) 
0.00197

>  <TransFSScore_200nM>  (373) 
0.0024970000000000001

>  <TransFSScore>  (373) 
0.0095507500000000002

>  <FeatureSteinScore>  (373) 
0.38185764968877939

>  <XCos_RefMols>  (373) 
x0104_0

>  <XCos_NumHits>  (373) 
1

>  <XCos_Score1>  (373) 
9.9830

>  <XCos_Score2>  (373) 
0.2820

>  <XCos_Score3>  (373) 
0.0282

$$$$
C#CCC(=O)C(O)c1cc(Cl)cc(Br)c1
     RDKit          3D

 15 15  0  0  0  0  0  0  0  0999 V2000
    8.4297    6.3734   22.1276 C   0  0  0  0  0  0  0  0  0  0  0  0
    9.3383    6.2590   22.9116 C   0  0  0  0  0  0  0  0  0  0  0  0
   10.4442    6.1204   23.8643 C   0  0  0  0  0  0  0  0  0  0  0  0
   11.6371    5.4975   23.1832 C   0  0  0  0  0  0  0  0  0  0  0  0
   11.8008    5.7087   21.9898 O   0  0  0  0  0  0  0  0  0  0  0  0
   12.6421    4.6168   23.9047 C   0  0  2  0  0  0  0  0  0  0  0  0
   13.9544    4.7917   23.4280 O   0  0  0  0  0  0  0  0  0  0  0  0
   12.2360    3.1542   23.8543 C   0  0  0  0  0  0  0  0  0  0  0  0
   11.0175    2.7284   24.4145 C   0  0  0  0  0  0  0  0  0  0  0  0
   10.6442    1.3814   24.3460 C   0  0  0  0  0  0  0  0  0  0  0  0
    9.1279    0.8565   25.0547 Cl  0  0  0  0  0  0  0  0  0  0  0  0
   11.4750    0.4527   23.7071 C   0  0  0  0  0  0  0  0  0  0  0  0
   12.6813    0.8715   23.1337 C   0  0  0  0  0  0  0  0  0  0  0  0
   13.8128   -0.3781   22.2175 Br  0  0  0  0  0  0  0  0  0  0  0  0
   13.0600    2.2155   23.2093 C   0  0  0  0  0  0  0  0  0  0  0  0
  1  2  3  0
  2  3  1  0
  3  4  1  0
  4  5  2  0
  4  6  1  0
  6  7  1  6
  6  8  1  0
  8  9  2  0
  9 10  1  0
 10 11  1  0
 10 12  2  0
 12 13  1  0
 13 14  1  0
 13 15  2  0
 15  8  1  0
M  END
>  <Hit>  (374) 
Mpro-x0946_0

>  <Receptor>  (374) 
Mpro-x1249_0

>  <SCORE>  (374) 
-11.848699999999999

>  <SCORE.norm>  (374) 
-0.78991100000000003

>  <SCORE.heavy>  (374) 
15

>  <OrigSmiles>  (374) 
C#CCC(=O)C(O)c1cc(Cl)cc(Br)c1

>  <SuCOS_Score>  (374) 
0.61077097401052149

>  <Max_SuCOS_Score>  (374) 
0.61077097401052149

>  <Cum_SuCOS_Score>  (374) 
3.8392003913495314

>  <TransFSScore_50nM>  (374) 
0.00039800000000000002

>  <TransFSScore_1uM>  (374) 
0.036483000000000002

>  <TransFSScore_10nM>  (374) 
0.001441

>  <TransFSScore_200nM>  (374) 
0.0025600000000000002

>  <TransFSScore>  (374) 
0.0102205

>  <FeatureSteinScore>  (374) 
0.39362630022209844

>  <XCos_RefMols>  (374) 
x0195_0

>  <XCos_NumHits>  (374) 
1

>  <XCos_Score1>  (374) 
10.5746

>  <XCos_Score2>  (374) 
0.2987

>  <XCos_Score3>  (374) 
0.0282

$$$$
C#CCC(=O)C(O)c1cc(Cl)cc(Br)c1
     RDKit          3D

 15 15  0  0  0  0  0  0  0  0999 V2000
    8.3896    6.4440   22.0141 C   0  0  0  0  0  0  0  0  0  0  0  0
    9.2704    6.3070   22.8258 C   0  0  0  0  0  0  0  0  0  0  0  0
   10.3424    6.1407   23.8122 C   0  0  0  0  0  0  0  0  0  0  0  0
   11.5620    5.5460   23.1534 C   0  0  0  0  0  0  0  0  0  0  0  0
   11.7411    5.7585   21.9624 O   0  0  0  0  0  0  0  0  0  0  0  0
   12.5758    4.6921   23.8944 C   0  0  2  0  0  0  0  0  0  0  0  0
   13.8857    4.8659   23.4106 O   0  0  0  0  0  0  0  0  0  0  0  0
   12.1819    3.2253   23.8816 C   0  0  0  0  0  0  0  0  0  0  0  0
   10.9809    2.8000   24.4787 C   0  0  0  0  0  0  0  0  0  0  0  0
   10.6182    1.4487   24.4448 C   0  0  0  0  0  0  0  0  0  0  0  0
    9.1240    0.9246   25.1993 Cl  0  0  0  0  0  0  0  0  0  0  0  0
   11.4421    0.5151   23.8040 C   0  0  0  0  0  0  0  0  0  0  0  0
   12.6306    0.9331   23.1943 C   0  0  0  0  0  0  0  0  0  0  0  0
   13.7514   -0.3242   22.2753 Br  0  0  0  0  0  0  0  0  0  0  0  0
   12.9988    2.2815   23.2351 C   0  0  0  0  0  0  0  0  0  0  0  0
  1  2  3  0
  2  3  1  0
  3  4  1  0
  4  5  2  0
  4  6  1  0
  6  7  1  6
  6  8  1  0
  8  9  2  0
  9 10  1  0
 10 11  1  0
 10 12  2  0
 12 13  1  0
 13 14  1  0
 13 15  2  0
 15  8  1  0
M  END
>  <Hit>  (375) 
Mpro-x0946_0

>  <Receptor>  (375) 
Mpro-x1249_0

>  <SCORE>  (375) 
-11.8858

>  <SCORE.norm>  (375) 
-0.79238799999999998

>  <SCORE.heavy>  (375) 
15

>  <OrigSmiles>  (375) 
C#CCC(=O)C(O)c1cc(Cl)cc(Br)c1

>  <SuCOS_Score>  (375) 
0.61025207692242756

>  <Max_SuCOS_Score>  (375) 
0.61025207692242756

>  <Cum_SuCOS_Score>  (375) 
3.78987715570354

>  <TransFSScore_50nM>  (375) 
0.00041399999999999998

>  <TransFSScore_1uM>  (375) 
0.034462

>  <TransFSScore_10nM>  (375) 
0.001077

>  <TransFSScore_200nM>  (375) 
0.0023579999999999999

>  <TransFSScore>  (375) 
0.0095777499999999995

>  <FeatureSteinScore>  (375) 
0.39405374685059985

>  <XCos_RefMols>  (375) 
x0195_0

>  <XCos_NumHits>  (375) 
1

>  <XCos_Score1>  (375) 
10.4838

>  <XCos_Score2>  (375) 
0.2962

>  <XCos_Score3>  (375) 
0.0282

$$$$
C#CCC(=O)C(O)c1cc(Cl)cc(Br)c1
     RDKit          3D

 15 15  0  0  0  0  0  0  0  0999 V2000
    8.8186    6.4967   22.6677 C   0  0  0  0  0  0  0  0  0  0  0  0
    9.8808    6.3450   23.2174 C   0  0  0  0  0  0  0  0  0  0  0  0
   11.1725    6.1593   23.8858 C   0  0  0  0  0  0  0  0  0  0  0  0
   12.1594    5.5291   22.9351 C   0  0  0  0  0  0  0  0  0  0  0  0
   12.2591    5.9938   21.8083 O   0  0  0  0  0  0  0  0  0  0  0  0
   13.0318    4.3427   23.3061 C   0  0  2  0  0  0  0  0  0  0  0  0
   14.2664    4.3474   22.6308 O   0  0  0  0  0  0  0  0  0  0  0  0
   12.3014    3.0281   23.0939 C   0  0  0  0  0  0  0  0  0  0  0  0
   10.8958    2.9887   23.0431 C   0  0  0  0  0  0  0  0  0  0  0  0
   10.2332    1.7749   22.8284 C   0  0  0  0  0  0  0  0  0  0  0  0
    8.4804    1.7322   22.7753 Cl  0  0  0  0  0  0  0  0  0  0  0  0
   10.9663    0.5953   22.6489 C   0  0  0  0  0  0  0  0  0  0  0  0
   12.3652    0.6292   22.6826 C   0  0  0  0  0  0  0  0  0  0  0  0
   13.3878   -0.9689   22.3970 Br  0  0  0  0  0  0  0  0  0  0  0  0
   13.0285    1.8398   22.9061 C   0  0  0  0  0  0  0  0  0  0  0  0
  1  2  3  0
  2  3  1  0
  3  4  1  0
  4  5  2  0
  4  6  1  0
  6  7  1  6
  6  8  1  0
  8  9  2  0
  9 10  1  0
 10 11  1  0
 10 12  2  0
 12 13  1  0
 13 14  1  0
 13 15  2  0
 15  8  1  0
M  END
>  <Hit>  (376) 
Mpro-x0946_0

>  <Receptor>  (376) 
Mpro-x0305_0

>  <SCORE>  (376) 
-12.077

>  <SCORE.norm>  (376) 
-0.80513500000000005

>  <SCORE.heavy>  (376) 
15

>  <OrigSmiles>  (376) 
C#CCC(=O)C(O)c1cc(Cl)cc(Br)c1

>  <SuCOS_Score>  (376) 
0.53896747795711941

>  <Max_SuCOS_Score>  (376) 
0.53896747795711941

>  <Cum_SuCOS_Score>  (376) 
3.6785687035165666

>  <TransFSScore_50nM>  (376) 
0.0049059999999999998

>  <TransFSScore_1uM>  (376) 
0.057713

>  <TransFSScore_10nM>  (376) 
0.005117

>  <TransFSScore_200nM>  (376) 
0.010178

>  <TransFSScore>  (376) 
0.019478499999999996

>  <FeatureSteinScore>  (376) 
0.29898010740801451

>  <XCos_RefMols>  (376) 
x0195_0

>  <XCos_NumHits>  (376) 
1

>  <XCos_Score1>  (376) 
9.7659

>  <XCos_Score2>  (376) 
0.2207

>  <XCos_Score3>  (376) 
0.0226

$$$$
C#CCC(=O)C(O)c1cc(Cl)cc(Br)c1
     RDKit          3D

 15 15  0  0  0  0  0  0  0  0999 V2000
    8.7668    6.4272   22.6094 C   0  0  0  0  0  0  0  0  0  0  0  0
    9.8281    6.2984   23.1667 C   0  0  0  0  0  0  0  0  0  0  0  0
   11.1187    6.1428   23.8450 C   0  0  0  0  0  0  0  0  0  0  0  0
   12.1222    5.5188   22.9077 C   0  0  0  0  0  0  0  0  0  0  0  0
   12.2333    5.9834   21.7819 O   0  0  0  0  0  0  0  0  0  0  0  0
   12.9979    4.3388   23.2910 C   0  0  2  0  0  0  0  0  0  0  0  0
   14.2435    4.3548   22.6365 O   0  0  0  0  0  0  0  0  0  0  0  0
   12.2819    3.0188   23.0642 C   0  0  0  0  0  0  0  0  0  0  0  0
   10.8773    2.9670   22.9971 C   0  0  0  0  0  0  0  0  0  0  0  0
   10.2282    1.7483   22.7690 C   0  0  0  0  0  0  0  0  0  0  0  0
    8.4766    1.6902   22.6957 Cl  0  0  0  0  0  0  0  0  0  0  0  0
   10.9740    0.5763   22.5922 C   0  0  0  0  0  0  0  0  0  0  0  0
   12.3720    0.6226   22.6421 C   0  0  0  0  0  0  0  0  0  0  0  0
   13.4122   -0.9649   22.3606 Br  0  0  0  0  0  0  0  0  0  0  0  0
   13.0218    1.8380   22.8790 C   0  0  0  0  0  0  0  0  0  0  0  0
  1  2  3  0
  2  3  1  0
  3  4  1  0
  4  5  2  0
  4  6  1  0
  6  7  1  6
  6  8  1  0
  8  9  2  0
  9 10  1  0
 10 11  1  0
 10 12  2  0
 12 13  1  0
 13 14  1  0
 13 15  2  0
 15  8  1  0
M  END
>  <Hit>  (377) 
Mpro-x0946_0

>  <Receptor>  (377) 
Mpro-x0305_0

>  <SCORE>  (377) 
-12.099399999999999

>  <SCORE.norm>  (377) 
-0.80662500000000004

>  <SCORE.heavy>  (377) 
15

>  <OrigSmiles>  (377) 
C#CCC(=O)C(O)c1cc(Cl)cc(Br)c1

>  <SuCOS_Score>  (377) 
0.52884989155716666

>  <Max_SuCOS_Score>  (377) 
0.52884989155716666

>  <Cum_SuCOS_Score>  (377) 
3.6464312527684828

>  <TransFSScore_50nM>  (377) 
0.0052509999999999996

>  <TransFSScore_1uM>  (377) 
0.053496000000000002

>  <TransFSScore_10nM>  (377) 
0.0052519999999999997

>  <TransFSScore_200nM>  (377) 
0.010876

>  <TransFSScore>  (377) 
0.018718749999999999

>  <FeatureSteinScore>  (377) 
0.28612945009034901

>  <XCos_RefMols>  (377) 
x0195_0

>  <XCos_NumHits>  (377) 
1

>  <XCos_Score1>  (377) 
9.6777

>  <XCos_Score2>  (377) 
0.2187

>  <XCos_Score3>  (377) 
0.0226

$$$$
C#CCC(=O)C(O)c1cc(Cl)cc(Br)c1
     RDKit          3D

 15 15  0  0  0  0  0  0  0  0999 V2000
    8.8197    6.5072   22.7341 C   0  0  0  0  0  0  0  0  0  0  0  0
    9.9014    6.3466   23.2418 C   0  0  0  0  0  0  0  0  0  0  0  0
   11.2172    6.1524   23.8587 C   0  0  0  0  0  0  0  0  0  0  0  0
   12.1582    5.5044   22.8739 C   0  0  0  0  0  0  0  0  0  0  0  0
   12.2166    5.9593   21.7402 O   0  0  0  0  0  0  0  0  0  0  0  0
   13.0327    4.3118   23.2189 C   0  0  2  0  0  0  0  0  0  0  0  0
   14.2544    4.3173   22.5205 O   0  0  0  0  0  0  0  0  0  0  0  0
   12.2933    3.0017   23.0100 C   0  0  0  0  0  0  0  0  0  0  0  0
   10.8901    2.9786   22.9080 C   0  0  0  0  0  0  0  0  0  0  0  0
   10.2198    1.7683   22.6968 C   0  0  0  0  0  0  0  0  0  0  0  0
    8.4698    1.7461   22.5797 Cl  0  0  0  0  0  0  0  0  0  0  0  0
   10.9434    0.5759   22.5718 C   0  0  0  0  0  0  0  0  0  0  0  0
   12.3404    0.5932   22.6566 C   0  0  0  0  0  0  0  0  0  0  0  0
   13.3517   -1.0237   22.4460 Br  0  0  0  0  0  0  0  0  0  0  0  0
   13.0110    1.8004   22.8766 C   0  0  0  0  0  0  0  0  0  0  0  0
  1  2  3  0
  2  3  1  0
  3  4  1  0
  4  5  2  0
  4  6  1  0
  6  7  1  6
  6  8  1  0
  8  9  2  0
  9 10  1  0
 10 11  1  0
 10 12  2  0
 12 13  1  0
 13 14  1  0
 13 15  2  0
 15  8  1  0
M  END
>  <Hit>  (378) 
Mpro-x0946_0

>  <Receptor>  (378) 
Mpro-x0305_0

>  <SCORE>  (378) 
-12.1343

>  <SCORE.norm>  (378) 
-0.80895399999999995

>  <SCORE.heavy>  (378) 
15

>  <OrigSmiles>  (378) 
C#CCC(=O)C(O)c1cc(Cl)cc(Br)c1

>  <SuCOS_Score>  (378) 
0.51960575806628384

>  <Max_SuCOS_Score>  (378) 
0.51960575806628384

>  <Cum_SuCOS_Score>  (378) 
3.6301765007590325

>  <TransFSScore_50nM>  (378) 
0.0058180000000000003

>  <TransFSScore_1uM>  (378) 
0.051011000000000001

>  <TransFSScore_10nM>  (378) 
0.0053200000000000001

>  <TransFSScore_200nM>  (378) 
0.0095650000000000006

>  <TransFSScore>  (378) 
0.0179285

>  <FeatureSteinScore>  (378) 
0.2740601221361047

>  <XCos_RefMols>  (378) 
x0195_0

>  <XCos_NumHits>  (378) 
1

>  <XCos_Score1>  (378) 
9.5368

>  <XCos_Score2>  (378) 
0.2155

>  <XCos_Score3>  (378) 
0.0226

$$$$
C#CCC(=O)C(O)c1cc(Cl)cc(Br)c1
     RDKit          3D

 15 15  0  0  0  0  0  0  0  0999 V2000
    8.6129    6.4685   22.2396 C   0  0  0  0  0  0  0  0  0  0  0  0
    9.5988    6.2823   22.9079 C   0  0  0  0  0  0  0  0  0  0  0  0
   10.7975    6.0566   23.7216 C   0  0  0  0  0  0  0  0  0  0  0  0
   11.9050    5.4964   22.8645 C   0  0  0  0  0  0  0  0  0  0  0  0
   12.0873    5.9847   21.7581 O   0  0  0  0  0  0  0  0  0  0  0  0
   12.8016    4.3527   23.3052 C   0  0  2  0  0  0  0  0  0  0  0  0
   14.0877    4.4248   22.7387 O   0  0  0  0  0  0  0  0  0  0  0  0
   12.1599    3.0046   23.0263 C   0  0  0  0  0  0  0  0  0  0  0  0
   10.7666    2.8933   22.8642 C   0  0  0  0  0  0  0  0  0  0  0  0
   10.1874    1.6494   22.5889 C   0  0  0  0  0  0  0  0  0  0  0  0
    8.4489    1.5170   22.3970 Cl  0  0  0  0  0  0  0  0  0  0  0  0
   10.9931    0.5114   22.4594 C   0  0  0  0  0  0  0  0  0  0  0  0
   12.3813    0.6170   22.6040 C   0  0  0  0  0  0  0  0  0  0  0  0
   13.5055   -0.9228   22.3887 Br  0  0  0  0  0  0  0  0  0  0  0  0
   12.9607    1.8576   22.8880 C   0  0  0  0  0  0  0  0  0  0  0  0
  1  2  3  0
  2  3  1  0
  3  4  1  0
  4  5  2  0
  4  6  1  0
  6  7  1  6
  6  8  1  0
  8  9  2  0
  9 10  1  0
 10 11  1  0
 10 12  2  0
 12 13  1  0
 13 14  1  0
 13 15  2  0
 15  8  1  0
M  END
>  <Hit>  (379) 
Mpro-x0946_0

>  <Receptor>  (379) 
Mpro-x0305_0

>  <SCORE>  (379) 
-12.2323

>  <SCORE.norm>  (379) 
-0.81548600000000004

>  <SCORE.heavy>  (379) 
15

>  <OrigSmiles>  (379) 
C#CCC(=O)C(O)c1cc(Cl)cc(Br)c1

>  <SuCOS_Score>  (379) 
0.51246083554249688

>  <Max_SuCOS_Score>  (379) 
0.51246083554249688

>  <Cum_SuCOS_Score>  (379) 
3.5980234851939437

>  <TransFSScore_50nM>  (379) 
0.0049119999999999997

>  <TransFSScore_1uM>  (379) 
0.044861999999999999

>  <TransFSScore_10nM>  (379) 
0.0061729999999999997

>  <TransFSScore_200nM>  (379) 
0.0097490000000000007

>  <TransFSScore>  (379) 
0.016424000000000001

>  <FeatureSteinScore>  (379) 
0.26391411229484829

>  <XCos_RefMols>  (379) 
x0195_0

>  <XCos_NumHits>  (379) 
1

>  <XCos_Score1>  (379) 
9.5247

>  <XCos_Score2>  (379) 
0.2152

>  <XCos_Score3>  (379) 
0.0226

$$$$
C#CCC(=O)C12CCC(CC1)N2
     RDKit          3D

 12 13  0  0  0  0  0  0  0  0999 V2000
   10.6460   -2.7373   24.2278 C   0  0  0  0  0  0  0  0  0  0  0  0
    9.8610   -3.6321   24.4185 C   0  0  0  0  0  0  0  0  0  0  0  0
    8.9048   -4.7248   24.6505 C   0  0  0  0  0  0  0  0  0  0  0  0
    9.0630   -5.2693   26.0460 C   0  0  0  0  0  0  0  0  0  0  0  0
   10.1826   -5.5364   26.4587 O   0  0  0  0  0  0  0  0  0  0  0  0
    7.8603   -5.4559   26.9461 C   0  0  2  0  0  0  0  0  0  0  0  0
    6.6996   -6.2310   26.2858 C   0  0  0  0  0  0  0  0  0  0  0  0
    5.9357   -6.7262   27.5177 C   0  0  0  0  0  0  0  0  0  0  0  0
    6.7964   -6.1545   28.6609 C   0  0  2  0  0  0  0  0  0  0  0  0
    6.5507   -4.6413   28.7516 C   0  0  0  0  0  0  0  0  0  0  0  0
    7.3152   -4.1357   27.5209 C   0  0  0  0  0  0  0  0  0  0  0  0
    8.1542   -6.2200   28.1496 N   0  0  0  0  0  0  0  0  0  0  0  0
  1  2  3  0
  2  3  1  0
  3  4  1  0
  4  5  2  0
  6  4  1  6
  6  7  1  0
  7  8  1  0
  9  8  1  6
  9 10  1  0
  9 12  1  0
 10 11  1  0
 11  6  1  0
 12  6  1  0
M  END
>  <Hit>  (380) 
Mpro-x0991_0

>  <Receptor>  (380) 
Mpro-x0305_0

>  <SCORE>  (380) 
-4.2381099999999998

>  <SCORE.norm>  (380) 
-0.35317599999999999

>  <SCORE.heavy>  (380) 
12

>  <OrigSmiles>  (380) 
C#CCC(=O)C12CCC(CC1)N2

>  <SuCOS_Score>  (380) 
0.38852627498898612

>  <Max_SuCOS_Score>  (380) 
0.38852627498898612

>  <Cum_SuCOS_Score>  (380) 
1.6599288893663295

>  <TransFSScore_50nM>  (380) 
0.0083759999999999998

>  <TransFSScore_1uM>  (380) 
0.44414599999999999

>  <TransFSScore_10nM>  (380) 
0.0089440000000000006

>  <TransFSScore_200nM>  (380) 
0.097464999999999996

>  <TransFSScore>  (380) 
0.13973274999999999

>  <FeatureSteinScore>  (380) 
0.4068967323337559

>  <XCos_RefMols>  (380) 
x1374_0

>  <XCos_NumHits>  (380) 
1

>  <XCos_Score1>  (380) 
6.8074

>  <XCos_Score2>  (380) 
0.0000

>  <XCos_Score3>  (380) 
0.0000

$$$$
C#CCC(=O)C12CCC(CC1)N2
     RDKit          3D

 12 13  0  0  0  0  0  0  0  0999 V2000
   10.6697   -2.7470   24.2466 C   0  0  0  0  0  0  0  0  0  0  0  0
    9.8661   -3.6257   24.4349 C   0  0  0  0  0  0  0  0  0  0  0  0
    8.8872   -4.6983   24.6657 C   0  0  0  0  0  0  0  0  0  0  0  0
    9.0412   -5.2552   26.0567 C   0  0  0  0  0  0  0  0  0  0  0  0
   10.1606   -5.5156   26.4744 O   0  0  0  0  0  0  0  0  0  0  0  0
    7.8344   -5.4625   26.9467 C   0  0  2  0  0  0  0  0  0  0  0  0
    6.6917   -6.2549   26.2758 C   0  0  0  0  0  0  0  0  0  0  0  0
    5.9258   -6.7642   27.5007 C   0  0  0  0  0  0  0  0  0  0  0  0
    6.7679   -6.1807   28.6517 C   0  0  2  0  0  0  0  0  0  0  0  0
    6.4973   -4.6717   28.7426 C   0  0  0  0  0  0  0  0  0  0  0  0
    7.2636   -4.1520   27.5189 C   0  0  0  0  0  0  0  0  0  0  0  0
    8.1307   -6.2236   28.1515 N   0  0  0  0  0  0  0  0  0  0  0  0
  1  2  3  0
  2  3  1  0
  3  4  1  0
  4  5  2  0
  6  4  1  6
  6  7  1  0
  7  8  1  0
  9  8  1  6
  9 10  1  0
  9 12  1  0
 10 11  1  0
 11  6  1  0
 12  6  1  0
M  END
>  <Hit>  (381) 
Mpro-x0991_0

>  <Receptor>  (381) 
Mpro-x0305_0

>  <SCORE>  (381) 
-4.2642800000000003

>  <SCORE.norm>  (381) 
-0.35535699999999998

>  <SCORE.heavy>  (381) 
12

>  <OrigSmiles>  (381) 
C#CCC(=O)C12CCC(CC1)N2

>  <SuCOS_Score>  (381) 
0.38843529194521109

>  <Max_SuCOS_Score>  (381) 
0.38843529194521109

>  <Cum_SuCOS_Score>  (381) 
1.6559732397083642

>  <TransFSScore_50nM>  (381) 
0.0089189999999999998

>  <TransFSScore_1uM>  (381) 
0.44079000000000002

>  <TransFSScore_10nM>  (381) 
0.0091210000000000006

>  <TransFSScore_200nM>  (381) 
0.098283999999999996

>  <TransFSScore>  (381) 
0.1392785

>  <FeatureSteinScore>  (381) 
0.41392635578685777

>  <XCos_RefMols>  (381) 
x1374_0

>  <XCos_NumHits>  (381) 
1

>  <XCos_Score1>  (381) 
6.8576

>  <XCos_Score2>  (381) 
0.0000

>  <XCos_Score3>  (381) 
0.0000

$$$$
C#CCC(=O)C12CCC(CC1)N2
     RDKit          3D

 12 13  0  0  0  0  0  0  0  0999 V2000
   10.7126   -2.8694   24.1653 C   0  0  0  0  0  0  0  0  0  0  0  0
    9.8797   -3.7121   24.3872 C   0  0  0  0  0  0  0  0  0  0  0  0
    8.8643   -4.7410   24.6565 C   0  0  0  0  0  0  0  0  0  0  0  0
    9.0311   -5.2869   26.0503 C   0  0  0  0  0  0  0  0  0  0  0  0
   10.1538   -5.5491   26.4578 O   0  0  0  0  0  0  0  0  0  0  0  0
    7.8333   -5.4809   26.9554 C   0  0  2  0  0  0  0  0  0  0  0  0
    6.6789   -6.2722   26.3033 C   0  0  0  0  0  0  0  0  0  0  0  0
    5.9240   -6.7680   27.5406 C   0  0  0  0  0  0  0  0  0  0  0  0
    6.7822   -6.1804   28.6776 C   0  0  2  0  0  0  0  0  0  0  0  0
    6.5206   -4.6693   28.7601 C   0  0  0  0  0  0  0  0  0  0  0  0
    7.2759   -4.1631   27.5239 C   0  0  0  0  0  0  0  0  0  0  0  0
    8.1390   -6.2345   28.1625 N   0  0  0  0  0  0  0  0  0  0  0  0
  1  2  3  0
  2  3  1  0
  3  4  1  0
  4  5  2  0
  6  4  1  6
  6  7  1  0
  7  8  1  0
  9  8  1  6
  9 10  1  0
  9 12  1  0
 10 11  1  0
 11  6  1  0
 12  6  1  0
M  END
>  <Hit>  (382) 
Mpro-x0991_0

>  <Receptor>  (382) 
Mpro-x0305_0

>  <SCORE>  (382) 
-4.2830000000000004

>  <SCORE.norm>  (382) 
-0.35691699999999998

>  <SCORE.heavy>  (382) 
12

>  <OrigSmiles>  (382) 
C#CCC(=O)C12CCC(CC1)N2

>  <SuCOS_Score>  (382) 
0.39198525091212277

>  <Max_SuCOS_Score>  (382) 
0.39198525091212277

>  <Cum_SuCOS_Score>  (382) 
1.6310681613123093

>  <TransFSScore_50nM>  (382) 
0.0089339999999999992

>  <TransFSScore_1uM>  (382) 
0.44184299999999999

>  <TransFSScore_10nM>  (382) 
0.0090069999999999994

>  <TransFSScore_200nM>  (382) 
0.091108999999999996

>  <TransFSScore>  (382) 
0.13772324999999999

>  <FeatureSteinScore>  (382) 
0.40833324173418467

>  <XCos_RefMols>  (382) 
x1374_0

>  <XCos_NumHits>  (382) 
1

>  <XCos_Score1>  (382) 
6.8254

>  <XCos_Score2>  (382) 
0.0000

>  <XCos_Score3>  (382) 
0.0000

$$$$
C#CCC(=O)C12CCC(CC1)N2
     RDKit          3D

 12 13  0  0  0  0  0  0  0  0999 V2000
   10.7474   -2.7692   24.2708 C   0  0  0  0  0  0  0  0  0  0  0  0
    9.9354   -3.6396   24.4611 C   0  0  0  0  0  0  0  0  0  0  0  0
    8.9459   -4.7025   24.6920 C   0  0  0  0  0  0  0  0  0  0  0  0
    9.0881   -5.2542   26.0863 C   0  0  0  0  0  0  0  0  0  0  0  0
   10.2036   -5.5163   26.5132 O   0  0  0  0  0  0  0  0  0  0  0  0
    7.8743   -5.4541   26.9684 C   0  0  2  0  0  0  0  0  0  0  0  0
    6.7247   -6.2252   26.2844 C   0  0  0  0  0  0  0  0  0  0  0  0
    5.9461   -6.7360   27.5007 C   0  0  0  0  0  0  0  0  0  0  0  0
    6.7900   -6.1743   28.6612 C   0  0  2  0  0  0  0  0  0  0  0  0
    6.5385   -4.6629   28.7652 C   0  0  0  0  0  0  0  0  0  0  0  0
    7.3176   -4.1418   27.5502 C   0  0  0  0  0  0  0  0  0  0  0  0
    8.1546   -6.2304   28.1673 N   0  0  0  0  0  0  0  0  0  0  0  0
  1  2  3  0
  2  3  1  0
  3  4  1  0
  4  5  2  0
  6  4  1  6
  6  7  1  0
  7  8  1  0
  9  8  1  6
  9 10  1  0
  9 12  1  0
 10 11  1  0
 11  6  1  0
 12  6  1  0
M  END
>  <Hit>  (383) 
Mpro-x0991_0

>  <Receptor>  (383) 
Mpro-x0305_0

>  <SCORE>  (383) 
-4.3220700000000001

>  <SCORE.norm>  (383) 
-0.36017199999999999

>  <SCORE.heavy>  (383) 
12

>  <OrigSmiles>  (383) 
C#CCC(=O)C12CCC(CC1)N2

>  <SuCOS_Score>  (383) 
0.37417156430973431

>  <Max_SuCOS_Score>  (383) 
0.37417156430973431

>  <Cum_SuCOS_Score>  (383) 
1.6273773221330288

>  <TransFSScore_50nM>  (383) 
0.0077499999999999999

>  <TransFSScore_1uM>  (383) 
0.44000800000000001

>  <TransFSScore_10nM>  (383) 
0.0093069999999999993

>  <TransFSScore_200nM>  (383) 
0.096436999999999995

>  <TransFSScore>  (383) 
0.13837549999999998

>  <FeatureSteinScore>  (383) 
0.40113656748667942

>  <XCos_RefMols>  (383) 
x1374_0

>  <XCos_NumHits>  (383) 
1

>  <XCos_Score1>  (383) 
6.8292

>  <XCos_Score2>  (383) 
0.0000

>  <XCos_Score3>  (383) 
0.0000

$$$$
C#CCC(=O)C12CCC(CC1)N2
     RDKit          3D

 12 13  0  0  0  0  0  0  0  0999 V2000
   10.7055   -2.9689   24.0183 C   0  0  0  0  0  0  0  0  0  0  0  0
    9.8252   -3.7486   24.2837 C   0  0  0  0  0  0  0  0  0  0  0  0
    8.7506   -4.6984   24.6085 C   0  0  0  0  0  0  0  0  0  0  0  0
    8.9297   -5.2314   26.0059 C   0  0  0  0  0  0  0  0  0  0  0  0
   10.0581   -5.4653   26.4146 O   0  0  0  0  0  0  0  0  0  0  0  0
    7.7340   -5.4549   26.9097 C   0  0  2  0  0  0  0  0  0  0  0  0
    6.6060   -6.2802   26.2521 C   0  0  0  0  0  0  0  0  0  0  0  0
    5.8533   -6.7950   27.4874 C   0  0  0  0  0  0  0  0  0  0  0  0
    6.6835   -6.1795   28.6306 C   0  0  2  0  0  0  0  0  0  0  0  0
    6.3691   -4.6722   28.6954 C   0  0  0  0  0  0  0  0  0  0  0  0
    7.1236   -4.1495   27.4644 C   0  0  0  0  0  0  0  0  0  0  0  0
    8.0427   -6.2161   28.1147 N   0  0  0  0  0  0  0  0  0  0  0  0
  1  2  3  0
  2  3  1  0
  3  4  1  0
  4  5  2  0
  6  4  1  6
  6  7  1  0
  7  8  1  0
  9  8  1  6
  9 10  1  0
  9 12  1  0
 10 11  1  0
 11  6  1  0
 12  6  1  0
M  END
>  <Hit>  (384) 
Mpro-x0991_0

>  <Receptor>  (384) 
Mpro-x0305_0

>  <SCORE>  (384) 
-5.0772000000000004

>  <SCORE.norm>  (384) 
-0.42309999999999998

>  <SCORE.heavy>  (384) 
12

>  <OrigSmiles>  (384) 
C#CCC(=O)C12CCC(CC1)N2

>  <SuCOS_Score>  (384) 
0.41594520810165203

>  <Max_SuCOS_Score>  (384) 
0.41594520810165203

>  <Cum_SuCOS_Score>  (384) 
1.6545040772290642

>  <TransFSScore_50nM>  (384) 
0.013243

>  <TransFSScore_1uM>  (384) 
0.43018600000000001

>  <TransFSScore_10nM>  (384) 
0.010487

>  <TransFSScore_200nM>  (384) 
0.092050000000000007

>  <TransFSScore>  (384) 
0.13649150000000002

>  <FeatureSteinScore>  (384) 
0.44079367521539953

>  <XCos_RefMols>  (384) 
x1374_0,x0072_0

>  <XCos_NumHits>  (384) 
2

>  <XCos_Score1>  (384) 
6.9400

>  <XCos_Score2>  (384) 
0.0392

>  <XCos_Score3>  (384) 
0.0056

$$$$
C#CCC(=O)C12CCC(CC1)N2
     RDKit          3D

 12 13  0  0  0  0  0  0  0  0999 V2000
   10.3911   -2.7895   24.0650 C   0  0  0  0  0  0  0  0  0  0  0  0
    9.6556   -3.7195   24.2824 C   0  0  0  0  0  0  0  0  0  0  0  0
    8.7590   -4.8548   24.5458 C   0  0  0  0  0  0  0  0  0  0  0  0
    8.9134   -5.3225   25.9692 C   0  0  0  0  0  0  0  0  0  0  0  0
   10.0360   -5.5017   26.4198 O   0  0  0  0  0  0  0  0  0  0  0  0
    7.7013   -5.5392   26.8498 C   0  0  2  0  0  0  0  0  0  0  0  0
    6.6082   -6.4176   26.2035 C   0  0  0  0  0  0  0  0  0  0  0  0
    5.8442   -6.8978   27.4413 C   0  0  0  0  0  0  0  0  0  0  0  0
    6.6378   -6.2169   28.5731 C   0  0  2  0  0  0  0  0  0  0  0  0
    6.2971   -4.7194   28.5803 C   0  0  0  0  0  0  0  0  0  0  0  0
    7.0611   -4.2289   27.3432 C   0  0  0  0  0  0  0  0  0  0  0  0
    8.0100   -6.2224   28.0974 N   0  0  0  0  0  0  0  0  0  0  0  0
  1  2  3  0
  2  3  1  0
  3  4  1  0
  4  5  2  0
  6  4  1  6
  6  7  1  0
  7  8  1  0
  9  8  1  6
  9 10  1  0
  9 12  1  0
 10 11  1  0
 11  6  1  0
 12  6  1  0
M  END
>  <Hit>  (385) 
Mpro-x0991_0

>  <Receptor>  (385) 
Mpro-x1249_0

>  <SCORE>  (385) 
-5.2801799999999997

>  <SCORE.norm>  (385) 
-0.44001499999999999

>  <SCORE.heavy>  (385) 
12

>  <OrigSmiles>  (385) 
C#CCC(=O)C12CCC(CC1)N2

>  <SuCOS_Score>  (385) 
0.42682080235712438

>  <Max_SuCOS_Score>  (385) 
0.42682080235712438

>  <Cum_SuCOS_Score>  (385) 
1.6921438143898584

>  <TransFSScore_50nM>  (385) 
0.0074279999999999997

>  <TransFSScore_1uM>  (385) 
0.40701599999999999

>  <TransFSScore_10nM>  (385) 
0.0086599999999999993

>  <TransFSScore_200nM>  (385) 
0.071601999999999999

>  <TransFSScore>  (385) 
0.12367649999999999

>  <FeatureSteinScore>  (385) 
0.43335264775774257

>  <XCos_RefMols>  (385) 
x1374_0,x0072_0

>  <XCos_NumHits>  (385) 
2

>  <XCos_Score1>  (385) 
6.9387

>  <XCos_Score2>  (385) 
0.0784

>  <XCos_Score3>  (385) 
0.0113

$$$$
C#CCC(=O)C12CCC(CC1)N2
     RDKit          3D

 12 13  0  0  0  0  0  0  0  0999 V2000
   10.4674   -2.7357   23.7335 C   0  0  0  0  0  0  0  0  0  0  0  0
    9.6611   -3.6321   23.7397 C   0  0  0  0  0  0  0  0  0  0  0  0
    8.6771   -4.7247   23.7489 C   0  0  0  0  0  0  0  0  0  0  0  0
    8.9528   -5.6659   24.8921 C   0  0  0  0  0  0  0  0  0  0  0  0
    9.5200   -6.7257   24.6681 O   0  0  0  0  0  0  0  0  0  0  0  0
    8.5576   -5.3016   26.3089 C   0  0  2  0  0  0  0  0  0  0  0  0
    7.1029   -4.7980   26.4364 C   0  0  0  0  0  0  0  0  0  0  0  0
    6.8318   -5.0419   27.9278 C   0  0  0  0  0  0  0  0  0  0  0  0
    8.1731   -5.6449   28.3885 C   0  0  2  0  0  0  0  0  0  0  0  0
    9.2128   -4.5092   28.4554 C   0  0  0  0  0  0  0  0  0  0  0  0
    9.4928   -4.2631   26.9658 C   0  0  0  0  0  0  0  0  0  0  0  0
    8.6025   -6.4245   27.2384 N   0  0  0  0  0  0  0  0  0  0  0  0
  1  2  3  0
  2  3  1  0
  3  4  1  0
  4  5  2  0
  6  4  1  6
  6  7  1  0
  7  8  1  0
  9  8  1  6
  9 10  1  0
  9 12  1  0
 10 11  1  0
 11  6  1  0
 12  6  1  0
M  END
>  <Hit>  (386) 
Mpro-x0991_0

>  <Receptor>  (386) 
Mpro-x0387_0

>  <SCORE>  (386) 
-5.2901400000000001

>  <SCORE.norm>  (386) 
-0.44084499999999999

>  <SCORE.heavy>  (386) 
12

>  <OrigSmiles>  (386) 
C#CCC(=O)C12CCC(CC1)N2

>  <SuCOS_Score>  (386) 
0.50855298194645604

>  <Max_SuCOS_Score>  (386) 
0.50855298194645604

>  <Cum_SuCOS_Score>  (386) 
1.9657692270083063

>  <TransFSScore_50nM>  (386) 
0.025294000000000001

>  <TransFSScore_1uM>  (386) 
0.37021100000000001

>  <TransFSScore_10nM>  (386) 
0.038434000000000003

>  <TransFSScore_200nM>  (386) 
0.47225299999999998

>  <TransFSScore>  (386) 
0.226548

>  <FeatureSteinScore>  (386) 
0.32425054553139704

>  <XCos_RefMols>  (386) 
x0749_0

>  <XCos_NumHits>  (386) 
1

>  <XCos_Score1>  (386) 
7.0014

>  <XCos_Score2>  (386) 
0.0396

>  <XCos_Score3>  (386) 
0.0056

$$$$
C#CCC(=O)C12CCC(CC1)N2
     RDKit          3D

 12 13  0  0  0  0  0  0  0  0999 V2000
   10.5208   -2.7455   23.6961 C   0  0  0  0  0  0  0  0  0  0  0  0
    9.7123   -3.6396   23.7166 C   0  0  0  0  0  0  0  0  0  0  0  0
    8.7264   -4.7303   23.7398 C   0  0  0  0  0  0  0  0  0  0  0  0
    9.0037   -5.6602   24.8918 C   0  0  0  0  0  0  0  0  0  0  0  0
    9.5781   -6.7185   24.6787 O   0  0  0  0  0  0  0  0  0  0  0  0
    8.6013   -5.2865   26.3042 C   0  0  2  0  0  0  0  0  0  0  0  0
    7.1557   -4.7540   26.4162 C   0  0  0  0  0  0  0  0  0  0  0  0
    6.8645   -4.9908   27.9050 C   0  0  0  0  0  0  0  0  0  0  0  0
    8.1889   -5.6195   28.3801 C   0  0  2  0  0  0  0  0  0  0  0  0
    9.2502   -4.5046   28.4565 C   0  0  0  0  0  0  0  0  0  0  0  0
    9.5501   -4.2659   26.9695 C   0  0  0  0  0  0  0  0  0  0  0  0
    8.6145   -6.4089   27.2352 N   0  0  0  0  0  0  0  0  0  0  0  0
  1  2  3  0
  2  3  1  0
  3  4  1  0
  4  5  2  0
  6  4  1  6
  6  7  1  0
  7  8  1  0
  9  8  1  6
  9 10  1  0
  9 12  1  0
 10 11  1  0
 11  6  1  0
 12  6  1  0
M  END
>  <Hit>  (387) 
Mpro-x0991_0

>  <Receptor>  (387) 
Mpro-x0387_0

>  <SCORE>  (387) 
-5.2936300000000003

>  <SCORE.norm>  (387) 
-0.44113599999999997

>  <SCORE.heavy>  (387) 
12

>  <OrigSmiles>  (387) 
C#CCC(=O)C12CCC(CC1)N2

>  <SuCOS_Score>  (387) 
0.50136546176165375

>  <Max_SuCOS_Score>  (387) 
0.50136546176165375

>  <Cum_SuCOS_Score>  (387) 
1.9655662185225635

>  <TransFSScore_50nM>  (387) 
0.025807

>  <TransFSScore_1uM>  (387) 
0.36824299999999999

>  <TransFSScore_10nM>  (387) 
0.041999000000000002

>  <TransFSScore_200nM>  (387) 
0.48063299999999998

>  <TransFSScore>  (387) 
0.2291705

>  <FeatureSteinScore>  (387) 
0.30927014508188189

>  <XCos_RefMols>  (387) 
x0749_0

>  <XCos_NumHits>  (387) 
1

>  <XCos_Score1>  (387) 
6.9858

>  <XCos_Score2>  (387) 
0.0395

>  <XCos_Score3>  (387) 
0.0056

$$$$
C#CCC(=O)C12CCC(CC1)N2
     RDKit          3D

 12 13  0  0  0  0  0  0  0  0999 V2000
   10.6215   -2.7803   23.6890 C   0  0  0  0  0  0  0  0  0  0  0  0
    9.7651   -3.6278   23.7326 C   0  0  0  0  0  0  0  0  0  0  0  0
    8.7219   -4.6628   23.7858 C   0  0  0  0  0  0  0  0  0  0  0  0
    8.9867   -5.6129   24.9242 C   0  0  0  0  0  0  0  0  0  0  0  0
    9.5385   -6.6796   24.6943 O   0  0  0  0  0  0  0  0  0  0  0  0
    8.5998   -5.2493   26.3435 C   0  0  2  0  0  0  0  0  0  0  0  0
    7.1585   -4.7095   26.4739 C   0  0  0  0  0  0  0  0  0  0  0  0
    6.8799   -4.9577   27.9632 C   0  0  0  0  0  0  0  0  0  0  0  0
    8.2049   -5.5983   28.4202 C   0  0  2  0  0  0  0  0  0  0  0  0
    9.2734   -4.4903   28.4964 C   0  0  0  0  0  0  0  0  0  0  0  0
    9.5608   -4.2402   27.0089 C   0  0  0  0  0  0  0  0  0  0  0  0
    8.6151   -6.3800   27.2644 N   0  0  0  0  0  0  0  0  0  0  0  0
  1  2  3  0
  2  3  1  0
  3  4  1  0
  4  5  2  0
  6  4  1  6
  6  7  1  0
  7  8  1  0
  9  8  1  6
  9 10  1  0
  9 12  1  0
 10 11  1  0
 11  6  1  0
 12  6  1  0
M  END
>  <Hit>  (388) 
Mpro-x0991_0

>  <Receptor>  (388) 
Mpro-x0387_0

>  <SCORE>  (388) 
-5.2955699999999997

>  <SCORE.norm>  (388) 
-0.44129699999999999

>  <SCORE.heavy>  (388) 
12

>  <OrigSmiles>  (388) 
C#CCC(=O)C12CCC(CC1)N2

>  <SuCOS_Score>  (388) 
0.50224205875434902

>  <Max_SuCOS_Score>  (388) 
0.50224205875434902

>  <Cum_SuCOS_Score>  (388) 
1.9602675764538655

>  <TransFSScore_50nM>  (388) 
0.024766

>  <TransFSScore_1uM>  (388) 
0.37923899999999999

>  <TransFSScore_10nM>  (388) 
0.044176

>  <TransFSScore_200nM>  (388) 
0.48427700000000001

>  <TransFSScore>  (388) 
0.2331145

>  <FeatureSteinScore>  (388) 
0.31509280406651935

>  <XCos_RefMols>  (388) 
x0749_0

>  <XCos_NumHits>  (388) 
1

>  <XCos_Score1>  (388) 
7.0105

>  <XCos_Score2>  (388) 
0.0396

>  <XCos_Score3>  (388) 
0.0056

$$$$
C#CCC(=O)C12CCC(CC1)N2
     RDKit          3D

 12 13  0  0  0  0  0  0  0  0999 V2000
   10.5755   -2.8086   23.6875 C   0  0  0  0  0  0  0  0  0  0  0  0
    9.7033   -3.6387   23.7483 C   0  0  0  0  0  0  0  0  0  0  0  0
    8.6405   -4.6521   23.8236 C   0  0  0  0  0  0  0  0  0  0  0  0
    8.9170   -5.6160   24.9476 C   0  0  0  0  0  0  0  0  0  0  0  0
    9.4721   -6.6770   24.7000 O   0  0  0  0  0  0  0  0  0  0  0  0
    8.5376   -5.2731   26.3741 C   0  0  2  0  0  0  0  0  0  0  0  0
    7.0863   -4.7661   26.5244 C   0  0  0  0  0  0  0  0  0  0  0  0
    6.8292   -5.0330   28.0143 C   0  0  0  0  0  0  0  0  0  0  0  0
    8.1727   -5.6484   28.4517 C   0  0  2  0  0  0  0  0  0  0  0  0
    9.2176   -4.5181   28.5263 C   0  0  0  0  0  0  0  0  0  0  0  0
    9.4835   -4.2490   27.0381 C   0  0  0  0  0  0  0  0  0  0  0  0
    8.5874   -6.4111   27.2848 N   0  0  0  0  0  0  0  0  0  0  0  0
  1  2  3  0
  2  3  1  0
  3  4  1  0
  4  5  2  0
  6  4  1  6
  6  7  1  0
  7  8  1  0
  9  8  1  6
  9 10  1  0
  9 12  1  0
 10 11  1  0
 11  6  1  0
 12  6  1  0
M  END
>  <Hit>  (389) 
Mpro-x0991_0

>  <Receptor>  (389) 
Mpro-x0387_0

>  <SCORE>  (389) 
-5.3063399999999996

>  <SCORE.norm>  (389) 
-0.442195

>  <SCORE.heavy>  (389) 
12

>  <OrigSmiles>  (389) 
C#CCC(=O)C12CCC(CC1)N2

>  <SuCOS_Score>  (389) 
0.51614658860226814

>  <Max_SuCOS_Score>  (389) 
0.51614658860226814

>  <Cum_SuCOS_Score>  (389) 
1.9541229790280483

>  <TransFSScore_50nM>  (389) 
0.023238999999999999

>  <TransFSScore_1uM>  (389) 
0.37951099999999999

>  <TransFSScore_10nM>  (389) 
0.037172999999999998

>  <TransFSScore_200nM>  (389) 
0.45618399999999998

>  <TransFSScore>  (389) 
0.22402675

>  <FeatureSteinScore>  (389) 
0.3355036669106774

>  <XCos_RefMols>  (389) 
x0749_0

>  <XCos_NumHits>  (389) 
1

>  <XCos_Score1>  (389) 
7.0518

>  <XCos_Score2>  (389) 
0.0398

>  <XCos_Score3>  (389) 
0.0056

$$$$
C#CCC(=O)C1CC2CCC1N2
     RDKit          3D

 12 13  0  0  0  0  0  0  0  0999 V2000
    9.2537   -1.8036   21.5470 C   0  0  0  0  0  0  0  0  0  0  0  0
    8.8803   -2.8258   22.0657 C   0  0  0  0  0  0  0  0  0  0  0  0
    8.4252   -4.0716   22.7014 C   0  0  0  0  0  0  0  0  0  0  0  0
    9.2275   -4.3527   23.9475 C   0  0  0  0  0  0  0  0  0  0  0  0
   10.2848   -3.7592   24.1006 O   0  0  0  0  0  0  0  0  0  0  0  0
    8.8138   -5.3613   25.0096 C   0  0  2  0  0  0  0  0  0  0  0  0
    7.3115   -5.7107   25.1409 C   0  0  0  0  0  0  0  0  0  0  0  0
    7.0711   -5.4560   26.6426 C   0  0  2  0  0  0  0  0  0  0  0  0
    7.0014   -3.9339   26.8630 C   0  0  0  0  0  0  0  0  0  0  0  0
    8.4799   -3.5434   26.7424 C   0  0  0  0  0  0  0  0  0  0  0  0
    9.1366   -4.9122   26.4563 C   0  0  1  0  0  0  0  0  0  0  0  0
    8.3368   -5.8246   27.2586 N   0  0  0  0  0  0  0  0  0  0  0  0
  1  2  3  0
  2  3  1  0
  3  4  1  0
  4  5  2  0
  6  4  1  6
  6  7  1  0
  8  7  1  6
  8  9  1  0
  9 10  1  0
 11 10  1  6
 11 12  1  0
 11  6  1  0
 12  8  1  0
M  END
>  <Hit>  (390) 
Mpro-x0991_0

>  <Receptor>  (390) 
Mpro-x0874_0

>  <SCORE>  (390) 
-4.0816600000000003

>  <SCORE.norm>  (390) 
-0.340138

>  <SCORE.heavy>  (390) 
12

>  <OrigSmiles>  (390) 
C#CCC(=O)C1CC2CCC1N2

>  <SuCOS_Score>  (390) 
0.49524221434589044

>  <Max_SuCOS_Score>  (390) 
0.49524221434589044

>  <Cum_SuCOS_Score>  (390) 
2.1055438580771373

>  <TransFSScore_50nM>  (390) 
0.020775999999999999

>  <TransFSScore_1uM>  (390) 
0.34229999999999999

>  <TransFSScore_10nM>  (390) 
0.0030959999999999998

>  <TransFSScore_200nM>  (390) 
0.091446

>  <TransFSScore>  (390) 
0.11440449999999999

>  <FeatureSteinScore>  (390) 
0.32216717128516381

>  <XCos_RefMols>  (390) 
x1392_0,x0749_0

>  <XCos_NumHits>  (390) 
2

>  <XCos_Score1>  (390) 
7.8922

>  <XCos_Score2>  (390) 
0.0000

>  <XCos_Score3>  (390) 
0.0000

$$$$
C#CCC(=O)C1CC2CCC1N2
     RDKit          3D

 12 13  0  0  0  0  0  0  0  0999 V2000
    9.3233   -2.9926   23.2198 C   0  0  0  0  0  0  0  0  0  0  0  0
    9.1611   -4.0666   23.7429 C   0  0  0  0  0  0  0  0  0  0  0  0
    8.9639   -5.3766   24.3814 C   0  0  0  0  0  0  0  0  0  0  0  0
    9.5059   -5.3581   25.7864 C   0  0  0  0  0  0  0  0  0  0  0  0
   10.7100   -5.4854   25.9612 O   0  0  0  0  0  0  0  0  0  0  0  0
    8.5841   -5.1704   26.9756 C   0  0  1  0  0  0  0  0  0  0  0  0
    7.5743   -4.0237   26.7598 C   0  0  0  0  0  0  0  0  0  0  0  0
    6.2384   -4.7738   26.8789 C   0  0  2  0  0  0  0  0  0  0  0  0
    5.9998   -5.1307   28.3582 C   0  0  0  0  0  0  0  0  0  0  0  0
    6.9902   -6.2823   28.5543 C   0  0  0  0  0  0  0  0  0  0  0  0
    7.6312   -6.3716   27.1562 C   0  0  1  0  0  0  0  0  0  0  0  0
    6.5401   -6.0484   26.2522 N   0  0  0  0  0  0  0  0  0  0  0  0
  1  2  3  0
  2  3  1  0
  3  4  1  0
  4  5  2  0
  6  4  1  6
  6  7  1  0
  8  7  1  1
  8  9  1  0
  9 10  1  0
 11 10  1  1
 11 12  1  0
 11  6  1  0
 12  8  1  0
M  END
>  <Hit>  (391) 
Mpro-x0991_0

>  <Receptor>  (391) 
Mpro-x0874_0

>  <SCORE>  (391) 
-4.1680700000000002

>  <SCORE.norm>  (391) 
-0.34733900000000001

>  <SCORE.heavy>  (391) 
12

>  <OrigSmiles>  (391) 
C#CCC(=O)C1CC2CCC1N2

>  <SuCOS_Score>  (391) 
0.49349835764805949

>  <Max_SuCOS_Score>  (391) 
0.49349835764805949

>  <Cum_SuCOS_Score>  (391) 
1.6992917636484977

>  <TransFSScore_50nM>  (391) 
0.0066969999999999998

>  <TransFSScore_1uM>  (391) 
0.13348699999999999

>  <TransFSScore_10nM>  (391) 
0.010832

>  <TransFSScore_200nM>  (391) 
0.073985999999999996

>  <TransFSScore>  (391) 
0.056250500000000002

>  <FeatureSteinScore>  (391) 
0.44522480601790654

>  <XCos_RefMols>  (391) 
x1375_0,x0749_0

>  <XCos_NumHits>  (391) 
2

>  <XCos_Score1>  (391) 
8.0397

>  <XCos_Score2>  (391) 
0.0908

>  <XCos_Score3>  (391) 
0.0113

$$$$
C#CCC(=O)C1CC2CCC1N2
     RDKit          3D

 12 13  0  0  0  0  0  0  0  0999 V2000
    9.5783   -2.7989   23.3082 C   0  0  0  0  0  0  0  0  0  0  0  0
    9.3323   -3.8827   23.7754 C   0  0  0  0  0  0  0  0  0  0  0  0
    9.0316   -5.2049   24.3447 C   0  0  0  0  0  0  0  0  0  0  0  0
    9.5678   -5.3016   25.7488 C   0  0  0  0  0  0  0  0  0  0  0  0
   10.7630   -5.5014   25.9166 O   0  0  0  0  0  0  0  0  0  0  0  0
    8.6518   -5.1408   26.9463 C   0  0  1  0  0  0  0  0  0  0  0  0
    7.6712   -3.9608   26.7805 C   0  0  0  0  0  0  0  0  0  0  0  0
    6.3168   -4.6812   26.8701 C   0  0  2  0  0  0  0  0  0  0  0  0
    6.0701   -5.0938   28.3336 C   0  0  0  0  0  0  0  0  0  0  0  0
    7.0311   -6.2774   28.4795 C   0  0  0  0  0  0  0  0  0  0  0  0
    7.6688   -6.3239   27.0778 C   0  0  1  0  0  0  0  0  0  0  0  0
    6.5857   -5.9355   26.1900 N   0  0  0  0  0  0  0  0  0  0  0  0
  1  2  3  0
  2  3  1  0
  3  4  1  0
  4  5  2  0
  6  4  1  6
  6  7  1  0
  8  7  1  1
  8  9  1  0
  9 10  1  0
 11 10  1  1
 11 12  1  0
 11  6  1  0
 12  8  1  0
M  END
>  <Hit>  (392) 
Mpro-x0991_0

>  <Receptor>  (392) 
Mpro-x0874_0

>  <SCORE>  (392) 
-4.1802999999999999

>  <SCORE.norm>  (392) 
-0.348358

>  <SCORE.heavy>  (392) 
12

>  <OrigSmiles>  (392) 
C#CCC(=O)C1CC2CCC1N2

>  <SuCOS_Score>  (392) 
0.46886205229682976

>  <Max_SuCOS_Score>  (392) 
0.46886205229682976

>  <Cum_SuCOS_Score>  (392) 
1.7783992502745924

>  <TransFSScore_50nM>  (392) 
0.0057930000000000004

>  <TransFSScore_1uM>  (392) 
0.11784

>  <TransFSScore_10nM>  (392) 
0.012029

>  <TransFSScore_200nM>  (392) 
0.087623999999999994

>  <TransFSScore>  (392) 
0.055821499999999996

>  <FeatureSteinScore>  (392) 
0.42971485204896415

>  <XCos_RefMols>  (392) 
x1375_0,x1392_0

>  <XCos_NumHits>  (392) 
2

>  <XCos_Score1>  (392) 
7.9871

>  <XCos_Score2>  (392) 
0.0902

>  <XCos_Score3>  (392) 
0.0113

$$$$
C#CCC(=O)C1CC2CCC1N2
     RDKit          3D

 12 13  0  0  0  0  0  0  0  0999 V2000
    9.6716   -2.9167   23.3235 C   0  0  0  0  0  0  0  0  0  0  0  0
    9.3845   -3.9800   23.8139 C   0  0  0  0  0  0  0  0  0  0  0  0
    9.0344   -5.2774   24.4112 C   0  0  0  0  0  0  0  0  0  0  0  0
    9.5626   -5.3621   25.8190 C   0  0  0  0  0  0  0  0  0  0  0  0
   10.7552   -5.5700   25.9954 O   0  0  0  0  0  0  0  0  0  0  0  0
    8.6419   -5.1794   27.0099 C   0  0  1  0  0  0  0  0  0  0  0  0
    7.6652   -3.9999   26.8206 C   0  0  0  0  0  0  0  0  0  0  0  0
    6.3085   -4.7152   26.9162 C   0  0  2  0  0  0  0  0  0  0  0  0
    6.0545   -5.1032   28.3851 C   0  0  0  0  0  0  0  0  0  0  0  0
    7.0118   -6.2867   28.5545 C   0  0  0  0  0  0  0  0  0  0  0  0
    7.6553   -6.3578   27.1565 C   0  0  1  0  0  0  0  0  0  0  0  0
    6.5770   -5.9812   26.2578 N   0  0  0  0  0  0  0  0  0  0  0  0
  1  2  3  0
  2  3  1  0
  3  4  1  0
  4  5  2  0
  6  4  1  6
  6  7  1  0
  8  7  1  1
  8  9  1  0
  9 10  1  0
 11 10  1  1
 11 12  1  0
 11  6  1  0
 12  8  1  0
M  END
>  <Hit>  (393) 
Mpro-x0991_0

>  <Receptor>  (393) 
Mpro-x0874_0

>  <SCORE>  (393) 
-4.1959499999999998

>  <SCORE.norm>  (393) 
-0.349663

>  <SCORE.heavy>  (393) 
12

>  <OrigSmiles>  (393) 
C#CCC(=O)C1CC2CCC1N2

>  <SuCOS_Score>  (393) 
0.45802150735088543

>  <Max_SuCOS_Score>  (393) 
0.45802150735088543

>  <Cum_SuCOS_Score>  (393) 
1.7342927634902141

>  <TransFSScore_50nM>  (393) 
0.0061060000000000003

>  <TransFSScore_1uM>  (393) 
0.124102

>  <TransFSScore_10nM>  (393) 
0.011797999999999999

>  <TransFSScore_200nM>  (393) 
0.088723999999999997

>  <TransFSScore>  (393) 
0.057682499999999998

>  <FeatureSteinScore>  (393) 
0.41283037772077374

>  <XCos_RefMols>  (393) 
x1374_0,x1375_0

>  <XCos_NumHits>  (393) 
2

>  <XCos_Score1>  (393) 
7.8543

>  <XCos_Score2>  (393) 
0.0887

>  <XCos_Score3>  (393) 
0.0113

$$$$
C#CCC(=O)C1CC2CCC1N2
     RDKit          3D

 12 13  0  0  0  0  0  0  0  0999 V2000
    9.3800   -2.9492   23.2045 C   0  0  0  0  0  0  0  0  0  0  0  0
    9.1861   -4.0232   23.7168 C   0  0  0  0  0  0  0  0  0  0  0  0
    8.9501   -5.3331   24.3421 C   0  0  0  0  0  0  0  0  0  0  0  0
    9.5303   -5.3591   25.7316 C   0  0  0  0  0  0  0  0  0  0  0  0
   10.7357   -5.5155   25.8701 O   0  0  0  0  0  0  0  0  0  0  0  0
    8.6453   -5.1803   26.9498 C   0  0  1  0  0  0  0  0  0  0  0  0
    7.6748   -3.9901   26.8002 C   0  0  0  0  0  0  0  0  0  0  0  0
    6.3147   -4.6940   26.9269 C   0  0  2  0  0  0  0  0  0  0  0  0
    6.0986   -5.0948   28.3985 C   0  0  0  0  0  0  0  0  0  0  0  0
    7.0491   -6.2887   28.5286 C   0  0  0  0  0  0  0  0  0  0  0  0
    7.6522   -6.3511   27.1123 C   0  0  1  0  0  0  0  0  0  0  0  0
    6.5526   -5.9554   26.2484 N   0  0  0  0  0  0  0  0  0  0  0  0
  1  2  3  0
  2  3  1  0
  3  4  1  0
  4  5  2  0
  6  4  1  6
  6  7  1  0
  8  7  1  1
  8  9  1  0
  9 10  1  0
 11 10  1  1
 11 12  1  0
 11  6  1  0
 12  8  1  0
M  END
>  <Hit>  (394) 
Mpro-x0991_0

>  <Receptor>  (394) 
Mpro-x0874_0

>  <SCORE>  (394) 
-4.1991199999999997

>  <SCORE.norm>  (394) 
-0.34992699999999999

>  <SCORE.heavy>  (394) 
12

>  <OrigSmiles>  (394) 
C#CCC(=O)C1CC2CCC1N2

>  <SuCOS_Score>  (394) 
0.49110989032912744

>  <Max_SuCOS_Score>  (394) 
0.49110989032912744

>  <Cum_SuCOS_Score>  (394) 
1.7213844876636848

>  <TransFSScore_50nM>  (394) 
0.0070349999999999996

>  <TransFSScore_1uM>  (394) 
0.124662

>  <TransFSScore_10nM>  (394) 
0.011322

>  <TransFSScore_200nM>  (394) 
0.084679000000000004

>  <TransFSScore>  (394) 
0.056924500000000003

>  <FeatureSteinScore>  (394) 
0.4377548715598174

>  <XCos_RefMols>  (394) 
x1375_0,x0749_0

>  <XCos_NumHits>  (394) 
2

>  <XCos_Score1>  (394) 
7.9991

>  <XCos_Score2>  (394) 
0.0904

>  <XCos_Score3>  (394) 
0.0113

$$$$
C#CCC(=O)C1CC2CCC1N2
     RDKit          3D

 12 13  0  0  0  0  0  0  0  0999 V2000
    9.7495   -2.1336   22.3998 C   0  0  0  0  0  0  0  0  0  0  0  0
    9.2448   -3.1041   22.9064 C   0  0  0  0  0  0  0  0  0  0  0  0
    8.6264   -4.2866   23.5248 C   0  0  0  0  0  0  0  0  0  0  0  0
    9.3934   -4.7014   24.7557 C   0  0  0  0  0  0  0  0  0  0  0  0
   10.5294   -4.2746   24.9002 O   0  0  0  0  0  0  0  0  0  0  0  0
    8.8471   -5.6513   25.8119 C   0  0  2  0  0  0  0  0  0  0  0  0
    7.3118   -5.8138   25.9258 C   0  0  0  0  0  0  0  0  0  0  0  0
    7.0874   -5.5310   27.4250 C   0  0  2  0  0  0  0  0  0  0  0  0
    7.2024   -4.0117   27.6462 C   0  0  0  0  0  0  0  0  0  0  0  0
    8.7189   -3.8055   27.5428 C   0  0  0  0  0  0  0  0  0  0  0  0
    9.2060   -5.2447   27.2627 C   0  0  1  0  0  0  0  0  0  0  0  0
    8.2912   -6.0518   28.0549 N   0  0  0  0  0  0  0  0  0  0  0  0
  1  2  3  0
  2  3  1  0
  3  4  1  0
  4  5  2  0
  6  4  1  6
  6  7  1  0
  8  7  1  6
  8  9  1  0
  9 10  1  0
 11 10  1  6
 11 12  1  0
 11  6  1  0
 12  8  1  0
M  END
>  <Hit>  (395) 
Mpro-x0991_0

>  <Receptor>  (395) 
Mpro-x0305_0

>  <SCORE>  (395) 
-6.3548600000000004

>  <SCORE.norm>  (395) 
-0.52957200000000004

>  <SCORE.heavy>  (395) 
12

>  <OrigSmiles>  (395) 
C#CCC(=O)C1CC2CCC1N2

>  <SuCOS_Score>  (395) 
0.50339278707875912

>  <Max_SuCOS_Score>  (395) 
0.50339278707875912

>  <Cum_SuCOS_Score>  (395) 
2.1247847372084436

>  <TransFSScore_50nM>  (395) 
0.012331999999999999

>  <TransFSScore_1uM>  (395) 
0.27873900000000001

>  <TransFSScore_10nM>  (395) 
0.0061989999999999996

>  <TransFSScore_200nM>  (395) 
0.14222699999999999

>  <TransFSScore>  (395) 
0.10987425000000001

>  <FeatureSteinScore>  (395) 
0.39145380680533837

>  <XCos_RefMols>  (395) 
x1392_0,x1375_0

>  <XCos_NumHits>  (395) 
2

>  <XCos_Score1>  (395) 
8.5726

>  <XCos_Score2>  (395) 
0.0484

>  <XCos_Score3>  (395) 
0.0056

$$$$
C#CCC(=O)C1CC2CCC1N2
     RDKit          3D

 12 13  0  0  0  0  0  0  0  0999 V2000
   10.0401   -2.0627   22.4554 C   0  0  0  0  0  0  0  0  0  0  0  0
    9.4611   -2.9983   22.9482 C   0  0  0  0  0  0  0  0  0  0  0  0
    8.7570   -4.1399   23.5517 C   0  0  0  0  0  0  0  0  0  0  0  0
    9.5206   -4.6618   24.7434 C   0  0  0  0  0  0  0  0  0  0  0  0
   10.6867   -4.3214   24.8772 O   0  0  0  0  0  0  0  0  0  0  0  0
    8.9330   -5.6185   25.7709 C   0  0  2  0  0  0  0  0  0  0  0  0
    7.3925   -5.7471   25.8538 C   0  0  0  0  0  0  0  0  0  0  0  0
    7.1469   -5.4876   27.3539 C   0  0  2  0  0  0  0  0  0  0  0  0
    7.2929   -3.9759   27.6066 C   0  0  0  0  0  0  0  0  0  0  0  0
    8.8154   -3.8034   27.5347 C   0  0  0  0  0  0  0  0  0  0  0  0
    9.2742   -5.2480   27.2356 C   0  0  1  0  0  0  0  0  0  0  0  0
    8.3265   -6.0483   27.9953 N   0  0  0  0  0  0  0  0  0  0  0  0
  1  2  3  0
  2  3  1  0
  3  4  1  0
  4  5  2  0
  6  4  1  6
  6  7  1  0
  8  7  1  6
  8  9  1  0
  9 10  1  0
 11 10  1  6
 11 12  1  0
 11  6  1  0
 12  8  1  0
M  END
>  <Hit>  (396) 
Mpro-x0991_0

>  <Receptor>  (396) 
Mpro-x0305_0

>  <SCORE>  (396) 
-6.3571600000000004

>  <SCORE.norm>  (396) 
-0.52976400000000001

>  <SCORE.heavy>  (396) 
12

>  <OrigSmiles>  (396) 
C#CCC(=O)C1CC2CCC1N2

>  <SuCOS_Score>  (396) 
0.47932589071841475

>  <Max_SuCOS_Score>  (396) 
0.47932589071841475

>  <Cum_SuCOS_Score>  (396) 
2.195382251175928

>  <TransFSScore_50nM>  (396) 
0.012599000000000001

>  <TransFSScore_1uM>  (396) 
0.25792199999999998

>  <TransFSScore_10nM>  (396) 
0.0061279999999999998

>  <TransFSScore_200nM>  (396) 
0.176172

>  <TransFSScore>  (396) 
0.11320525000000001

>  <FeatureSteinScore>  (396) 
0.37018598711936601

>  <XCos_RefMols>  (396) 
x1392_0,x1375_0

>  <XCos_NumHits>  (396) 
2

>  <XCos_Score1>  (396) 
8.4943

>  <XCos_Score2>  (396) 
0.0480

>  <XCos_Score3>  (396) 
0.0056

$$$$
C#CCC(=O)C1CC2CCC1N2
     RDKit          3D

 12 13  0  0  0  0  0  0  0  0999 V2000
    9.9300   -2.1385   22.4915 C   0  0  0  0  0  0  0  0  0  0  0  0
    9.3890   -3.0990   22.9795 C   0  0  0  0  0  0  0  0  0  0  0  0
    8.7313   -4.2712   23.5768 C   0  0  0  0  0  0  0  0  0  0  0  0
    9.4819   -4.7312   24.8018 C   0  0  0  0  0  0  0  0  0  0  0  0
   10.6335   -4.3503   24.9512 O   0  0  0  0  0  0  0  0  0  0  0  0
    8.8995   -5.6732   25.8458 C   0  0  2  0  0  0  0  0  0  0  0  0
    7.3599   -5.8122   25.9279 C   0  0  0  0  0  0  0  0  0  0  0  0
    7.1091   -5.5268   27.4224 C   0  0  2  0  0  0  0  0  0  0  0  0
    7.2427   -4.0095   27.6472 C   0  0  0  0  0  0  0  0  0  0  0  0
    8.7640   -3.8265   27.5751 C   0  0  0  0  0  0  0  0  0  0  0  0
    9.2347   -5.2728   27.3039 C   0  0  1  0  0  0  0  0  0  0  0  0
    8.2916   -6.0662   28.0765 N   0  0  0  0  0  0  0  0  0  0  0  0
  1  2  3  0
  2  3  1  0
  3  4  1  0
  4  5  2  0
  6  4  1  6
  6  7  1  0
  8  7  1  6
  8  9  1  0
  9 10  1  0
 11 10  1  6
 11 12  1  0
 11  6  1  0
 12  8  1  0
M  END
>  <Hit>  (397) 
Mpro-x0991_0

>  <Receptor>  (397) 
Mpro-x0305_0

>  <SCORE>  (397) 
-6.3681200000000002

>  <SCORE.norm>  (397) 
-0.53067699999999995

>  <SCORE.heavy>  (397) 
12

>  <OrigSmiles>  (397) 
C#CCC(=O)C1CC2CCC1N2

>  <SuCOS_Score>  (397) 
0.49046860068606157

>  <Max_SuCOS_Score>  (397) 
0.49046860068606157

>  <Cum_SuCOS_Score>  (397) 
2.1474501986012737

>  <TransFSScore_50nM>  (397) 
0.010722000000000001

>  <TransFSScore_1uM>  (397) 
0.26361600000000002

>  <TransFSScore_10nM>  (397) 
0.0058729999999999997

>  <TransFSScore_200nM>  (397) 
0.14543400000000001

>  <TransFSScore>  (397) 
0.10641125000000001

>  <FeatureSteinScore>  (397) 
0.37626538250286456

>  <XCos_RefMols>  (397) 
x1392_0,x1375_0

>  <XCos_NumHits>  (397) 
2

>  <XCos_Score1>  (397) 
8.5314

>  <XCos_Score2>  (397) 
0.0482

>  <XCos_Score3>  (397) 
0.0056

$$$$
C#CCC(=O)C1CC2CCC1N2
     RDKit          3D

 12 13  0  0  0  0  0  0  0  0999 V2000
    9.2839   -2.3115   22.2368 C   0  0  0  0  0  0  0  0  0  0  0  0
    8.9410   -3.3421   22.7599 C   0  0  0  0  0  0  0  0  0  0  0  0
    8.5209   -4.5979   23.4001 C   0  0  0  0  0  0  0  0  0  0  0  0
    9.1695   -4.7436   24.7542 C   0  0  0  0  0  0  0  0  0  0  0  0
   10.1561   -4.0650   24.9987 O   0  0  0  0  0  0  0  0  0  0  0  0
    8.6875   -5.7149   25.8222 C   0  0  2  0  0  0  0  0  0  0  0  0
    7.1618   -5.8865   26.0200 C   0  0  0  0  0  0  0  0  0  0  0  0
    7.0219   -5.6318   27.5345 C   0  0  2  0  0  0  0  0  0  0  0  0
    7.1438   -4.1163   27.7765 C   0  0  0  0  0  0  0  0  0  0  0  0
    8.6512   -3.9012   27.5909 C   0  0  0  0  0  0  0  0  0  0  0  0
    9.1268   -5.3328   27.2574 C   0  0  1  0  0  0  0  0  0  0  0  0
    8.2614   -6.1583   28.0854 N   0  0  0  0  0  0  0  0  0  0  0  0
  1  2  3  0
  2  3  1  0
  3  4  1  0
  4  5  2  0
  6  4  1  6
  6  7  1  0
  8  7  1  6
  8  9  1  0
  9 10  1  0
 11 10  1  1
 11 12  1  0
 11  6  1  0
 12  8  1  0
M  END
>  <Hit>  (398) 
Mpro-x0991_0

>  <Receptor>  (398) 
Mpro-x0305_0

>  <SCORE>  (398) 
-6.3802599999999998

>  <SCORE.norm>  (398) 
-0.53168800000000005

>  <SCORE.heavy>  (398) 
12

>  <OrigSmiles>  (398) 
C#CCC(=O)C1CC2CCC1N2

>  <SuCOS_Score>  (398) 
0.50890058384788506

>  <Max_SuCOS_Score>  (398) 
0.50890058384788506

>  <Cum_SuCOS_Score>  (398) 
1.9468081817021901

>  <TransFSScore_50nM>  (398) 
0.0081860000000000006

>  <TransFSScore_1uM>  (398) 
0.29761199999999999

>  <TransFSScore_10nM>  (398) 
0.0077330000000000003

>  <TransFSScore_200nM>  (398) 
0.097570000000000004

>  <TransFSScore>  (398) 
0.10277525

>  <FeatureSteinScore>  (398) 
0.35657311044652085

>  <XCos_RefMols>  (398) 
x1392_0,x1375_0

>  <XCos_NumHits>  (398) 
2

>  <XCos_Score1>  (398) 
8.2092

>  <XCos_Score2>  (398) 
0.0464

>  <XCos_Score3>  (398) 
0.0056

$$$$
C#CCC(=O)C1CC2CCC1N2
     RDKit          3D

 12 13  0  0  0  0  0  0  0  0999 V2000
    9.0460   -2.4943   22.0961 C   0  0  0  0  0  0  0  0  0  0  0  0
    8.7450   -3.5094   22.6726 C   0  0  0  0  0  0  0  0  0  0  0  0
    8.3796   -4.7495   23.3739 C   0  0  0  0  0  0  0  0  0  0  0  0
    8.9986   -4.7810   24.7492 C   0  0  0  0  0  0  0  0  0  0  0  0
    9.9129   -4.0065   24.9896 O   0  0  0  0  0  0  0  0  0  0  0  0
    8.5744   -5.7480   25.8452 C   0  0  2  0  0  0  0  0  0  0  0  0
    7.0603   -5.9641   26.0843 C   0  0  0  0  0  0  0  0  0  0  0  0
    6.9497   -5.6873   27.5973 C   0  0  2  0  0  0  0  0  0  0  0  0
    7.0290   -4.1646   27.8106 C   0  0  0  0  0  0  0  0  0  0  0  0
    8.5238   -3.9054   27.5835 C   0  0  0  0  0  0  0  0  0  0  0  0
    9.0365   -5.3270   27.2623 C   0  0  1  0  0  0  0  0  0  0  0  0
    8.2186   -6.1646   28.1256 N   0  0  0  0  0  0  0  0  0  0  0  0
  1  2  3  0
  2  3  1  0
  3  4  1  0
  4  5  2  0
  6  4  1  6
  6  7  1  0
  8  7  1  6
  8  9  1  0
  9 10  1  0
 11 10  1  1
 11 12  1  0
 11  6  1  0
 12  8  1  0
M  END
>  <Hit>  (399) 
Mpro-x0991_0

>  <Receptor>  (399) 
Mpro-x0305_0

>  <SCORE>  (399) 
-6.4150200000000002

>  <SCORE.norm>  (399) 
-0.53458499999999998

>  <SCORE.heavy>  (399) 
12

>  <OrigSmiles>  (399) 
C#CCC(=O)C1CC2CCC1N2

>  <SuCOS_Score>  (399) 
0.51112365473693255

>  <Max_SuCOS_Score>  (399) 
0.51112365473693255

>  <Cum_SuCOS_Score>  (399) 
1.8390799470262227

>  <TransFSScore_50nM>  (399) 
0.0088100000000000001

>  <TransFSScore_1uM>  (399) 
0.32079600000000003

>  <TransFSScore_10nM>  (399) 
0.007404

>  <TransFSScore_200nM>  (399) 
0.078454999999999997

>  <TransFSScore>  (399) 
0.10386625000000001

>  <FeatureSteinScore>  (399) 
0.33270159670435701

>  <XCos_RefMols>  (399) 
x1392_0,x1375_0

>  <XCos_NumHits>  (399) 
2

>  <XCos_Score1>  (399) 
7.7698

>  <XCos_Score2>  (399) 
0.0439

>  <XCos_Score3>  (399) 
0.0056

$$$$
C#CCC(=O)CC12CCC(CC1)N2
     RDKit          3D

 13 14  0  0  0  0  0  0  0  0999 V2000
    9.5724   -1.0452   25.4289 C   0  0  0  0  0  0  0  0  0  0  0  0
    9.4606   -2.0659   24.7972 C   0  0  0  0  0  0  0  0  0  0  0  0
    9.3261   -3.3066   24.0268 C   0  0  0  0  0  0  0  0  0  0  0  0
    8.2669   -4.1845   24.6319 C   0  0  0  0  0  0  0  0  0  0  0  0
    7.1036   -4.0734   24.2734 O   0  0  0  0  0  0  0  0  0  0  0  0
    8.6291   -5.1463   25.7354 C   0  0  0  0  0  0  0  0  0  0  0  0
    7.4456   -5.4951   26.6675 C   0  0  1  0  0  0  0  0  0  0  0  0
    6.7551   -4.2797   27.3300 C   0  0  0  0  0  0  0  0  0  0  0  0
    6.0438   -4.9504   28.5143 C   0  0  0  0  0  0  0  0  0  0  0  0
    6.4478   -6.4258   28.3215 C   0  0  1  0  0  0  0  0  0  0  0  0
    5.6448   -6.9885   27.1351 C   0  0  0  0  0  0  0  0  0  0  0  0
    6.3526   -6.3221   25.9484 C   0  0  0  0  0  0  0  0  0  0  0  0
    7.8040   -6.3392   27.8011 N   0  0  0  0  0  0  0  0  0  0  0  0
  1  2  3  0
  2  3  1  0
  3  4  1  0
  4  5  2  0
  4  6  1  0
  7  6  1  6
  7  8  1  0
  8  9  1  0
 10  9  1  6
 10 11  1  0
 10 13  1  0
 11 12  1  0
 12  7  1  0
 13  7  1  0
M  END
>  <Hit>  (400) 
Mpro-x0991_0

>  <Receptor>  (400) 
Mpro-x0874_0

>  <SCORE>  (400) 
-3.6782900000000001

>  <SCORE.norm>  (400) 
-0.282945

>  <SCORE.heavy>  (400) 
13

>  <OrigSmiles>  (400) 
C#CCC(=O)CC12CCC(CC1)N2

>  <SuCOS_Score>  (400) 
0.35659765306064228

>  <Max_SuCOS_Score>  (400) 
0.35659765306064228

>  <Cum_SuCOS_Score>  (400) 
1.8346138923174227

>  <TransFSScore_50nM>  (400) 
0.0097029999999999998

>  <TransFSScore_1uM>  (400) 
0.259855

>  <TransFSScore_10nM>  (400) 
0.0067039999999999999

>  <TransFSScore_200nM>  (400) 
0.104406

>  <TransFSScore>  (400) 
0.095167000000000002

>  <FeatureSteinScore>  (400) 
0.23685626808240967

>  <XCos_RefMols>  (400) 
x1385_0,x1348_0

>  <XCos_NumHits>  (400) 
2

>  <XCos_Score1>  (400) 
8.1120

>  <XCos_Score2>  (400) 
0.0458

>  <XCos_Score3>  (400) 
0.0056

$$$$
C#CCC(=O)CC12CCC(CC1)N2
     RDKit          3D

 13 14  0  0  0  0  0  0  0  0999 V2000
    9.6718   -2.3720   22.0368 C   0  0  0  0  0  0  0  0  0  0  0  0
    9.5052   -2.6228   23.2042 C   0  0  0  0  0  0  0  0  0  0  0  0
    9.3000   -2.9288   24.6238 C   0  0  0  0  0  0  0  0  0  0  0  0
    8.4618   -4.1670   24.7751 C   0  0  0  0  0  0  0  0  0  0  0  0
    7.4889   -4.3375   24.0548 O   0  0  0  0  0  0  0  0  0  0  0  0
    8.7771   -5.1584   25.8666 C   0  0  0  0  0  0  0  0  0  0  0  0
    7.5595   -5.5166   26.7500 C   0  0  1  0  0  0  0  0  0  0  0  0
    6.8759   -4.3127   27.4402 C   0  0  0  0  0  0  0  0  0  0  0  0
    6.1160   -5.0130   28.5762 C   0  0  0  0  0  0  0  0  0  0  0  0
    6.4937   -6.4885   28.3365 C   0  0  1  0  0  0  0  0  0  0  0  0
    5.7141   -6.9862   27.1062 C   0  0  0  0  0  0  0  0  0  0  0  0
    6.4707   -6.2900   25.9676 C   0  0  0  0  0  0  0  0  0  0  0  0
    7.8663   -6.4123   27.8589 N   0  0  0  0  0  0  0  0  0  0  0  0
  1  2  3  0
  2  3  1  0
  3  4  1  0
  4  5  2  0
  4  6  1  0
  7  6  1  6
  7  8  1  0
  8  9  1  0
 10  9  1  6
 10 11  1  0
 10 13  1  0
 11 12  1  0
 12  7  1  0
 13  7  1  0
M  END
>  <Hit>  (401) 
Mpro-x0991_0

>  <Receptor>  (401) 
Mpro-x0874_0

>  <SCORE>  (401) 
-3.7259199999999999

>  <SCORE.norm>  (401) 
-0.286609

>  <SCORE.heavy>  (401) 
13

>  <OrigSmiles>  (401) 
C#CCC(=O)CC12CCC(CC1)N2

>  <SuCOS_Score>  (401) 
0.37520945834928693

>  <Max_SuCOS_Score>  (401) 
0.37520945834928693

>  <Cum_SuCOS_Score>  (401) 
1.9525478221847377

>  <TransFSScore_50nM>  (401) 
0.0065640000000000004

>  <TransFSScore_1uM>  (401) 
0.189584

>  <TransFSScore_10nM>  (401) 
0.011731999999999999

>  <TransFSScore_200nM>  (401) 
0.056120000000000003

>  <TransFSScore>  (401) 
0.066000000000000003

>  <FeatureSteinScore>  (401) 
0.3476687423184483

>  <XCos_RefMols>  (401) 
x1392_0,x1385_0,x1348_0

>  <XCos_NumHits>  (401) 
3

>  <XCos_Score1>  (401) 
9.4367

>  <XCos_Score2>  (401) 
0.1066

>  <XCos_Score3>  (401) 
0.0113

$$$$
C#CCC(=O)CC12CCC(CC1)N2
     RDKit          3D

 13 14  0  0  0  0  0  0  0  0999 V2000
    9.5400   -2.3540   21.8210 C   0  0  0  0  0  0  0  0  0  0  0  0
    9.0489   -3.1061   22.6251 C   0  0  0  0  0  0  0  0  0  0  0  0
    8.4516   -4.0255   23.6056 C   0  0  0  0  0  0  0  0  0  0  0  0
    9.0614   -3.8135   24.9675 C   0  0  0  0  0  0  0  0  0  0  0  0
    9.4328   -2.6940   25.2886 O   0  0  0  0  0  0  0  0  0  0  0  0
    9.1549   -4.9413   25.9674 C   0  0  0  0  0  0  0  0  0  0  0  0
    7.7950   -5.3340   26.5894 C   0  0  1  0  0  0  0  0  0  0  0  0
    7.0659   -4.1254   27.2245 C   0  0  0  0  0  0  0  0  0  0  0  0
    6.1164   -4.8242   28.2062 C   0  0  0  0  0  0  0  0  0  0  0  0
    6.4613   -6.3038   27.9599 C   0  0  1  0  0  0  0  0  0  0  0  0
    5.8551   -6.7158   26.6034 C   0  0  0  0  0  0  0  0  0  0  0  0
    6.8065   -6.0214   25.6180 C   0  0  0  0  0  0  0  0  0  0  0  0
    7.8922   -6.2782   27.6962 N   0  0  0  0  0  0  0  0  0  0  0  0
  1  2  3  0
  2  3  1  0
  3  4  1  0
  4  5  2  0
  4  6  1  0
  7  6  1  6
  7  8  1  0
  8  9  1  0
 10  9  1  6
 10 11  1  0
 10 13  1  0
 11 12  1  0
 12  7  1  0
 13  7  1  0
M  END
>  <Hit>  (402) 
Mpro-x0991_0

>  <Receptor>  (402) 
Mpro-x0874_0

>  <SCORE>  (402) 
-3.7887499999999998

>  <SCORE.norm>  (402) 
-0.29144199999999998

>  <SCORE.heavy>  (402) 
13

>  <OrigSmiles>  (402) 
C#CCC(=O)CC12CCC(CC1)N2

>  <SuCOS_Score>  (402) 
0.47805008032333013

>  <Max_SuCOS_Score>  (402) 
0.47805008032333013

>  <Cum_SuCOS_Score>  (402) 
2.016371524336805

>  <TransFSScore_50nM>  (402) 
0.01064

>  <TransFSScore_1uM>  (402) 
0.194685

>  <TransFSScore_10nM>  (402) 
0.003029

>  <TransFSScore_200nM>  (402) 
0.040029000000000002

>  <TransFSScore>  (402) 
0.062095750000000005

>  <FeatureSteinScore>  (402) 
0.44297678171690125

>  <XCos_RefMols>  (402) 
x1392_0,x1385_0,x0395_0

>  <XCos_NumHits>  (402) 
3

>  <XCos_Score1>  (402) 
10.4481

>  <XCos_Score2>  (402) 
0.0590

>  <XCos_Score3>  (402) 
0.0056

$$$$
C#CCC(=O)CC12CCC(CC1)N2
     RDKit          3D

 13 14  0  0  0  0  0  0  0  0999 V2000
   10.0066   -2.3369   22.1575 C   0  0  0  0  0  0  0  0  0  0  0  0
    9.5560   -2.5519   23.2548 C   0  0  0  0  0  0  0  0  0  0  0  0
    9.0071   -2.8159   24.5889 C   0  0  0  0  0  0  0  0  0  0  0  0
    8.3766   -4.1795   24.6336 C   0  0  0  0  0  0  0  0  0  0  0  0
    7.5400   -4.4930   23.7993 O   0  0  0  0  0  0  0  0  0  0  0  0
    8.7204   -5.1293   25.7532 C   0  0  0  0  0  0  0  0  0  0  0  0
    7.5192   -5.4766   26.6629 C   0  0  1  0  0  0  0  0  0  0  0  0
    6.8369   -4.2627   27.3366 C   0  0  0  0  0  0  0  0  0  0  0  0
    6.0997   -4.9430   28.4994 C   0  0  0  0  0  0  0  0  0  0  0  0
    6.4851   -6.4206   28.2868 C   0  0  1  0  0  0  0  0  0  0  0  0
    5.6908   -6.9514   27.0800 C   0  0  0  0  0  0  0  0  0  0  0  0
    6.4246   -6.2753   25.9147 C   0  0  0  0  0  0  0  0  0  0  0  0
    7.8496   -6.3450   27.7866 N   0  0  0  0  0  0  0  0  0  0  0  0
  1  2  3  0
  2  3  1  0
  3  4  1  0
  4  5  2  0
  4  6  1  0
  7  6  1  6
  7  8  1  0
  8  9  1  0
 10  9  1  6
 10 11  1  0
 10 13  1  0
 11 12  1  0
 12  7  1  0
 13  7  1  0
M  END
>  <Hit>  (403) 
Mpro-x0991_0

>  <Receptor>  (403) 
Mpro-x0874_0

>  <SCORE>  (403) 
-3.7912300000000001

>  <SCORE.norm>  (403) 
-0.29163299999999998

>  <SCORE.heavy>  (403) 
13

>  <OrigSmiles>  (403) 
C#CCC(=O)CC12CCC(CC1)N2

>  <SuCOS_Score>  (403) 
0.38108556902212343

>  <Max_SuCOS_Score>  (403) 
0.38108556902212343

>  <Cum_SuCOS_Score>  (403) 
2.0205937887693008

>  <TransFSScore_50nM>  (403) 
0.0082290000000000002

>  <TransFSScore_1uM>  (403) 
0.213892

>  <TransFSScore_10nM>  (403) 
0.011269

>  <TransFSScore_200nM>  (403) 
0.063675999999999996

>  <TransFSScore>  (403) 
0.074266499999999999

>  <FeatureSteinScore>  (403) 
0.36944126759070145

>  <XCos_RefMols>  (403) 
x1348_0,x1392_0,x1385_0

>  <XCos_NumHits>  (403) 
3

>  <XCos_Score1>  (403) 
9.6926

>  <XCos_Score2>  (403) 
0.1095

>  <XCos_Score3>  (403) 
0.0113

$$$$
C#CCC(=O)CC12CCC(CC1)N2
     RDKit          3D

 13 14  0  0  0  0  0  0  0  0999 V2000
    9.9170   -2.2840   22.1886 C   0  0  0  0  0  0  0  0  0  0  0  0
    9.5648   -2.5367   23.3136 C   0  0  0  0  0  0  0  0  0  0  0  0
    9.1354   -2.8463   24.6813 C   0  0  0  0  0  0  0  0  0  0  0  0
    8.4523   -4.1844   24.7237 C   0  0  0  0  0  0  0  0  0  0  0  0
    7.5982   -4.4604   23.8938 O   0  0  0  0  0  0  0  0  0  0  0  0
    8.7662   -5.1528   25.8360 C   0  0  0  0  0  0  0  0  0  0  0  0
    7.5437   -5.5060   26.7145 C   0  0  1  0  0  0  0  0  0  0  0  0
    6.8520   -4.2976   27.3885 C   0  0  0  0  0  0  0  0  0  0  0  0
    6.0862   -4.9893   28.5259 C   0  0  0  0  0  0  0  0  0  0  0  0
    6.4697   -6.4659   28.3029 C   0  0  1  0  0  0  0  0  0  0  0  0
    5.7000   -6.9774   27.0721 C   0  0  0  0  0  0  0  0  0  0  0  0
    6.4624   -6.2899   25.9321 C   0  0  0  0  0  0  0  0  0  0  0  0
    7.8453   -6.3903   27.8339 N   0  0  0  0  0  0  0  0  0  0  0  0
  1  2  3  0
  2  3  1  0
  3  4  1  0
  4  5  2  0
  4  6  1  0
  7  6  1  6
  7  8  1  0
  8  9  1  0
 10  9  1  6
 10 11  1  0
 10 13  1  0
 11 12  1  0
 12  7  1  0
 13  7  1  0
M  END
>  <Hit>  (404) 
Mpro-x0991_0

>  <Receptor>  (404) 
Mpro-x0874_0

>  <SCORE>  (404) 
-3.8821500000000002

>  <SCORE.norm>  (404) 
-0.29862699999999998

>  <SCORE.heavy>  (404) 
13

>  <OrigSmiles>  (404) 
C#CCC(=O)CC12CCC(CC1)N2

>  <SuCOS_Score>  (404) 
0.37928156462107815

>  <Max_SuCOS_Score>  (404) 
0.37928156462107815

>  <Cum_SuCOS_Score>  (404) 
2.0313429811348165

>  <TransFSScore_50nM>  (404) 
0.0069069999999999999

>  <TransFSScore_1uM>  (404) 
0.20468900000000001

>  <TransFSScore_10nM>  (404) 
0.011109000000000001

>  <TransFSScore_200nM>  (404) 
0.058022999999999998

>  <TransFSScore>  (404) 
0.070182000000000008

>  <FeatureSteinScore>  (404) 
0.34723647966598326

>  <XCos_RefMols>  (404) 
x1392_0,x1385_0,x1348_0

>  <XCos_NumHits>  (404) 
3

>  <XCos_Score1>  (404) 
9.4041

>  <XCos_Score2>  (404) 
0.1063

>  <XCos_Score3>  (404) 
0.0113

$$$$
C#CCC(=O)CC12CCC(CC1)N2
     RDKit          3D

 13 14  0  0  0  0  0  0  0  0999 V2000
    9.2988   -2.5143   22.3242 C   0  0  0  0  0  0  0  0  0  0  0  0
    9.0056   -3.3453   23.1469 C   0  0  0  0  0  0  0  0  0  0  0  0
    8.6461   -4.3575   24.1517 C   0  0  0  0  0  0  0  0  0  0  0  0
    9.3397   -4.0728   25.4592 C   0  0  0  0  0  0  0  0  0  0  0  0
    9.8699   -2.9847   25.6302 O   0  0  0  0  0  0  0  0  0  0  0  0
    9.3286   -5.0778   26.5862 C   0  0  0  0  0  0  0  0  0  0  0  0
    7.9153   -5.3774   27.1370 C   0  0  1  0  0  0  0  0  0  0  0  0
    7.2132   -4.1098   27.6810 C   0  0  0  0  0  0  0  0  0  0  0  0
    6.1717   -4.7209   28.6272 C   0  0  0  0  0  0  0  0  0  0  0  0
    6.4534   -6.2244   28.4573 C   0  0  1  0  0  0  0  0  0  0  0  0
    5.9090   -6.6597   27.0820 C   0  0  0  0  0  0  0  0  0  0  0  0
    6.9524   -6.0531   26.1323 C   0  0  0  0  0  0  0  0  0  0  0  0
    7.8969   -6.2804   28.2818 N   0  0  0  0  0  0  0  0  0  0  0  0
  1  2  3  0
  2  3  1  0
  3  4  1  0
  4  5  2  0
  4  6  1  0
  7  6  1  6
  7  8  1  0
  8  9  1  0
 10  9  1  6
 10 11  1  0
 10 13  1  0
 11 12  1  0
 12  7  1  0
 13  7  1  0
M  END
>  <Hit>  (405) 
Mpro-x0991_0

>  <Receptor>  (405) 
Mpro-x0305_0

>  <SCORE>  (405) 
-4.1539200000000003

>  <SCORE.norm>  (405) 
-0.31953199999999998

>  <SCORE.heavy>  (405) 
13

>  <OrigSmiles>  (405) 
C#CCC(=O)CC12CCC(CC1)N2

>  <SuCOS_Score>  (405) 
0.49349477280545356

>  <Max_SuCOS_Score>  (405) 
0.49349477280545356

>  <Cum_SuCOS_Score>  (405) 
1.9271093156143253

>  <TransFSScore_50nM>  (405) 
0.011674

>  <TransFSScore_1uM>  (405) 
0.25618299999999999

>  <TransFSScore_10nM>  (405) 
0.0024759999999999999

>  <TransFSScore_200nM>  (405) 
0.047057000000000002

>  <TransFSScore>  (405) 
0.079347500000000001

>  <FeatureSteinScore>  (405) 
0.4261906050207071

>  <XCos_RefMols>  (405) 
x1392_0,x1334_0,x0395_0

>  <XCos_NumHits>  (405) 
3

>  <XCos_Score1>  (405) 
9.7634

>  <XCos_Score2>  (405) 
0.0552

>  <XCos_Score3>  (405) 
0.0056

$$$$
C#CCC(=O)CC12CCC(CC1)N2
     RDKit          3D

 13 14  0  0  0  0  0  0  0  0999 V2000
    9.4246   -2.2697   22.2652 C   0  0  0  0  0  0  0  0  0  0  0  0
    9.0830   -3.0989   23.0710 C   0  0  0  0  0  0  0  0  0  0  0  0
    8.6643   -4.1089   24.0548 C   0  0  0  0  0  0  0  0  0  0  0  0
    9.2886   -3.8284   25.3976 C   0  0  0  0  0  0  0  0  0  0  0  0
    9.6959   -2.7025   25.6441 O   0  0  0  0  0  0  0  0  0  0  0  0
    9.3539   -4.8916   26.4680 C   0  0  0  0  0  0  0  0  0  0  0  0
    7.9726   -5.2753   27.0470 C   0  0  1  0  0  0  0  0  0  0  0  0
    7.2455   -4.0682   27.6873 C   0  0  0  0  0  0  0  0  0  0  0  0
    6.2605   -4.7713   28.6302 C   0  0  0  0  0  0  0  0  0  0  0  0
    6.5894   -6.2510   28.3633 C   0  0  1  0  0  0  0  0  0  0  0  0
    6.0125   -6.6269   26.9838 C   0  0  0  0  0  0  0  0  0  0  0  0
    6.9994   -5.9281   26.0371 C   0  0  0  0  0  0  0  0  0  0  0  0
    8.0269   -6.2424   28.1369 N   0  0  0  0  0  0  0  0  0  0  0  0
  1  2  3  0
  2  3  1  0
  3  4  1  0
  4  5  2  0
  4  6  1  0
  7  6  1  6
  7  8  1  0
  8  9  1  0
 10  9  1  6
 10 11  1  0
 10 13  1  0
 11 12  1  0
 12  7  1  0
 13  7  1  0
M  END
>  <Hit>  (406) 
Mpro-x0991_0

>  <Receptor>  (406) 
Mpro-x0305_0

>  <SCORE>  (406) 
-4.2920800000000003

>  <SCORE.norm>  (406) 
-0.33016000000000001

>  <SCORE.heavy>  (406) 
13

>  <OrigSmiles>  (406) 
C#CCC(=O)CC12CCC(CC1)N2

>  <SuCOS_Score>  (406) 
0.45863595317397282

>  <Max_SuCOS_Score>  (406) 
0.45863595317397282

>  <Cum_SuCOS_Score>  (406) 
2.0376797709445897

>  <TransFSScore_50nM>  (406) 
0.010555999999999999

>  <TransFSScore_1uM>  (406) 
0.237868

>  <TransFSScore_10nM>  (406) 
0.0026350000000000002

>  <TransFSScore_200nM>  (406) 
0.051340999999999998

>  <TransFSScore>  (406) 
0.075600000000000001

>  <FeatureSteinScore>  (406) 
0.4163120166418548

>  <XCos_RefMols>  (406) 
x1392_0,x1334_0,x0395_0

>  <XCos_NumHits>  (406) 
3

>  <XCos_Score1>  (406) 
10.1754

>  <XCos_Score2>  (406) 
0.0575

>  <XCos_Score3>  (406) 
0.0056

$$$$
C#CCC(=O)CC12CCC(CC1)N2
     RDKit          3D

 13 14  0  0  0  0  0  0  0  0999 V2000
    9.6975   -2.2904   22.4005 C   0  0  0  0  0  0  0  0  0  0  0  0
    9.2815   -3.1347   23.1539 C   0  0  0  0  0  0  0  0  0  0  0  0
    8.7758   -4.1641   24.0747 C   0  0  0  0  0  0  0  0  0  0  0  0
    9.3141   -3.9395   25.4644 C   0  0  0  0  0  0  0  0  0  0  0  0
    9.6889   -2.8216   25.7870 O   0  0  0  0  0  0  0  0  0  0  0  0
    9.3308   -5.0511   26.4865 C   0  0  0  0  0  0  0  0  0  0  0  0
    7.9406   -5.3641   27.0862 C   0  0  1  0  0  0  0  0  0  0  0  0
    7.2460   -4.1032   27.6548 C   0  0  0  0  0  0  0  0  0  0  0  0
    6.2439   -4.7242   28.6366 C   0  0  0  0  0  0  0  0  0  0  0  0
    6.5338   -6.2249   28.4564 C   0  0  1  0  0  0  0  0  0  0  0  0
    5.9458   -6.6653   27.1009 C   0  0  0  0  0  0  0  0  0  0  0  0
    6.9496   -6.0489   26.1155 C   0  0  0  0  0  0  0  0  0  0  0  0
    7.9707   -6.2672   28.2306 N   0  0  0  0  0  0  0  0  0  0  0  0
  1  2  3  0
  2  3  1  0
  3  4  1  0
  4  5  2  0
  4  6  1  0
  7  6  1  6
  7  8  1  0
  8  9  1  0
 10  9  1  6
 10 11  1  0
 10 13  1  0
 11 12  1  0
 12  7  1  0
 13  7  1  0
M  END
>  <Hit>  (407) 
Mpro-x0991_0

>  <Receptor>  (407) 
Mpro-x0305_0

>  <SCORE>  (407) 
-4.56935

>  <SCORE.norm>  (407) 
-0.35148800000000002

>  <SCORE.heavy>  (407) 
13

>  <OrigSmiles>  (407) 
C#CCC(=O)CC12CCC(CC1)N2

>  <SuCOS_Score>  (407) 
0.44398896135786642

>  <Max_SuCOS_Score>  (407) 
0.44398896135786642

>  <Cum_SuCOS_Score>  (407) 
2.0545371764905593

>  <TransFSScore_50nM>  (407) 
0.0082620000000000002

>  <TransFSScore_1uM>  (407) 
0.248971

>  <TransFSScore_10nM>  (407) 
0.0032910000000000001

>  <TransFSScore_200nM>  (407) 
0.050770999999999997

>  <TransFSScore>  (407) 
0.077823749999999997

>  <FeatureSteinScore>  (407) 
0.38643229158738918

>  <XCos_RefMols>  (407) 
x1392_0,x1334_0,x0395_0

>  <XCos_NumHits>  (407) 
3

>  <XCos_Score1>  (407) 
10.0357

>  <XCos_Score2>  (407) 
0.0567

>  <XCos_Score3>  (407) 
0.0056

$$$$
C#CCC(=O)CC12CCC(CC1)N2
     RDKit          3D

 13 14  0  0  0  0  0  0  0  0999 V2000
    9.7020   -2.2584   22.4097 C   0  0  0  0  0  0  0  0  0  0  0  0
    9.2965   -3.0893   23.1835 C   0  0  0  0  0  0  0  0  0  0  0  0
    8.8027   -4.1048   24.1259 C   0  0  0  0  0  0  0  0  0  0  0  0
    9.3715   -3.8691   25.5016 C   0  0  0  0  0  0  0  0  0  0  0  0
    9.7698   -2.7527   25.8006 O   0  0  0  0  0  0  0  0  0  0  0  0
    9.3911   -4.9662   26.5391 C   0  0  0  0  0  0  0  0  0  0  0  0
    7.9925   -5.3198   27.0953 C   0  0  1  0  0  0  0  0  0  0  0  0
    7.2670   -4.0899   27.6925 C   0  0  0  0  0  0  0  0  0  0  0  0
    6.2524   -4.7596   28.6283 C   0  0  0  0  0  0  0  0  0  0  0  0
    6.5681   -6.2488   28.4013 C   0  0  1  0  0  0  0  0  0  0  0  0
    6.0171   -6.6481   27.0178 C   0  0  0  0  0  0  0  0  0  0  0  0
    7.0336   -5.9828   26.0783 C   0  0  0  0  0  0  0  0  0  0  0  0
    8.0102   -6.2631   28.2071 N   0  0  0  0  0  0  0  0  0  0  0  0
  1  2  3  0
  2  3  1  0
  3  4  1  0
  4  5  2  0
  4  6  1  0
  7  6  1  6
  7  8  1  0
  8  9  1  0
 10  9  1  6
 10 11  1  0
 10 13  1  0
 11 12  1  0
 12  7  1  0
 13  7  1  0
M  END
>  <Hit>  (408) 
Mpro-x0991_0

>  <Receptor>  (408) 
Mpro-x0305_0

>  <SCORE>  (408) 
-4.61911

>  <SCORE.norm>  (408) 
-0.35531600000000002

>  <SCORE.heavy>  (408) 
13

>  <OrigSmiles>  (408) 
C#CCC(=O)CC12CCC(CC1)N2

>  <SuCOS_Score>  (408) 
0.43252045745716355

>  <Max_SuCOS_Score>  (408) 
0.43252045745716355

>  <Cum_SuCOS_Score>  (408) 
2.0646660861860933

>  <TransFSScore_50nM>  (408) 
0.0082850000000000007

>  <TransFSScore_1uM>  (408) 
0.242393

>  <TransFSScore_10nM>  (408) 
0.0028839999999999998

>  <TransFSScore_200nM>  (408) 
0.049986000000000003

>  <TransFSScore>  (408) 
0.07588700000000001

>  <FeatureSteinScore>  (408) 
0.37533449901219496

>  <XCos_RefMols>  (408) 
x1392_0,x1334_0,x0395_0

>  <XCos_NumHits>  (408) 
3

>  <XCos_Score1>  (408) 
9.8452

>  <XCos_Score2>  (408) 
0.0556

>  <XCos_Score3>  (408) 
0.0056

$$$$
C#CCC(=O)CC12CCC(CC1)N2
     RDKit          3D

 13 14  0  0  0  0  0  0  0  0999 V2000
    9.9255   -2.3535   22.4107 C   0  0  0  0  0  0  0  0  0  0  0  0
    9.4137   -3.1328   23.1749 C   0  0  0  0  0  0  0  0  0  0  0  0
    8.7914   -4.0850   24.1075 C   0  0  0  0  0  0  0  0  0  0  0  0
    9.3177   -3.8761   25.5042 C   0  0  0  0  0  0  0  0  0  0  0  0
    9.6805   -2.7598   25.8458 O   0  0  0  0  0  0  0  0  0  0  0  0
    9.3366   -5.0023   26.5102 C   0  0  0  0  0  0  0  0  0  0  0  0
    7.9437   -5.3407   27.0896 C   0  0  1  0  0  0  0  0  0  0  0  0
    7.2274   -4.0965   27.6680 C   0  0  0  0  0  0  0  0  0  0  0  0
    6.2222   -4.7434   28.6296 C   0  0  0  0  0  0  0  0  0  0  0  0
    6.5324   -6.2379   28.4316 C   0  0  1  0  0  0  0  0  0  0  0  0
    5.9650   -6.6660   27.0635 C   0  0  0  0  0  0  0  0  0  0  0  0
    6.9721   -6.0236   26.0983 C   0  0  0  0  0  0  0  0  0  0  0  0
    7.9722   -6.2595   28.2215 N   0  0  0  0  0  0  0  0  0  0  0  0
  1  2  3  0
  2  3  1  0
  3  4  1  0
  4  5  2  0
  4  6  1  0
  7  6  1  6
  7  8  1  0
  8  9  1  0
 10  9  1  6
 10 11  1  0
 10 13  1  0
 11 12  1  0
 12  7  1  0
 13  7  1  0
M  END
>  <Hit>  (409) 
Mpro-x0991_0

>  <Receptor>  (409) 
Mpro-x0305_0

>  <SCORE>  (409) 
-4.7380300000000002

>  <SCORE.norm>  (409) 
-0.36446400000000001

>  <SCORE.heavy>  (409) 
13

>  <OrigSmiles>  (409) 
C#CCC(=O)CC12CCC(CC1)N2

>  <SuCOS_Score>  (409) 
0.42869251825250665

>  <Max_SuCOS_Score>  (409) 
0.42869251825250665

>  <Cum_SuCOS_Score>  (409) 
2.0722966559922078

>  <TransFSScore_50nM>  (409) 
0.0081019999999999998

>  <TransFSScore_1uM>  (409) 
0.25165900000000002

>  <TransFSScore_10nM>  (409) 
0.0033400000000000001

>  <TransFSScore_200nM>  (409) 
0.051702999999999999

>  <TransFSScore>  (409) 
0.078701000000000007

>  <FeatureSteinScore>  (409) 
0.3685404027046148

>  <XCos_RefMols>  (409) 
x1392_0,x1334_0,x0395_0

>  <XCos_NumHits>  (409) 
3

>  <XCos_Score1>  (409) 
9.9713

>  <XCos_Score2>  (409) 
0.0563

>  <XCos_Score3>  (409) 
0.0056

$$$$
C#CCC(=O)N1C2CCC1CC2
     RDKit          3D

 12 13  0  0  0  0  0  0  0  0999 V2000
    9.3585   -2.6064   22.5555 C   0  0  0  0  0  0  0  0  0  0  0  0
    8.7685   -3.6463   22.7105 C   0  0  0  0  0  0  0  0  0  0  0  0
    8.0480   -4.9148   22.9002 C   0  0  0  0  0  0  0  0  0  0  0  0
    8.5129   -5.6032   24.1589 C   0  0  0  0  0  0  0  0  0  0  0  0
    9.5289   -6.2853   24.1157 O   0  0  0  0  0  0  0  0  0  0  0  0
    7.7164   -5.5320   25.3773 N   0  0  0  0  0  0  0  0  0  0  0  0
    7.5289   -4.1810   25.9099 C   0  0  2  0  0  0  0  0  0  0  0  0
    8.9393   -3.7390   26.3575 C   0  0  0  0  0  0  0  0  0  0  0  0
    9.5247   -5.0611   26.8682 C   0  0  0  0  0  0  0  0  0  0  0  0
    8.3568   -6.0401   26.5947 C   0  0  1  0  0  0  0  0  0  0  0  0
    7.2839   -5.7733   27.6708 C   0  0  0  0  0  0  0  0  0  0  0  0
    6.6978   -4.4350   27.1863 C   0  0  0  0  0  0  0  0  0  0  0  0
  1  2  3  0
  2  3  1  0
  3  4  1  0
  4  5  2  0
  4  6  1  0
  6  7  1  0
  7  8  1  1
  8  9  1  0
 10  9  1  1
 10 11  1  0
 10  6  1  0
 11 12  1  0
 12  7  1  0
M  END
>  <Hit>  (410) 
Mpro-x0991_0

>  <Receptor>  (410) 
Mpro-x0874_0

>  <SCORE>  (410) 
-3.5451800000000002

>  <SCORE.norm>  (410) 
-0.29543199999999997

>  <SCORE.heavy>  (410) 
12

>  <OrigSmiles>  (410) 
C#CCC(=O)N1C2CCC1CC2

>  <SuCOS_Score>  (410) 
0.5040679004899552

>  <Max_SuCOS_Score>  (410) 
0.5040679004899552

>  <Cum_SuCOS_Score>  (410) 
1.9200599285960613

>  <TransFSScore_50nM>  (410) 
0.0048729999999999997

>  <TransFSScore_1uM>  (410) 
0.089277999999999996

>  <TransFSScore_10nM>  (410) 
0.0036619999999999999

>  <TransFSScore_200nM>  (410) 
0.048231000000000003

>  <TransFSScore>  (410) 
0.036511000000000002

>  <FeatureSteinScore>  (410) 
0.32925528505737245

>  <XCos_RefMols>  (410) 
x0749_0

>  <XCos_NumHits>  (410) 
1

>  <XCos_Score1>  (410) 
7.3561

>  <XCos_Score2>  (410) 
0.0000

>  <XCos_Score3>  (410) 
0.0000

$$$$
C#CCC(=O)N1C2CCC1CC2
     RDKit          3D

 12 13  0  0  0  0  0  0  0  0999 V2000
    9.3681   -2.6180   22.4677 C   0  0  0  0  0  0  0  0  0  0  0  0
    8.7218   -3.6095   22.6968 C   0  0  0  0  0  0  0  0  0  0  0  0
    7.9338   -4.8200   22.9759 C   0  0  0  0  0  0  0  0  0  0  0  0
    8.4595   -5.5213   24.2032 C   0  0  0  0  0  0  0  0  0  0  0  0
    9.4920   -6.1730   24.1118 O   0  0  0  0  0  0  0  0  0  0  0  0
    7.7024   -5.4983   25.4483 N   0  0  0  0  0  0  0  0  0  0  0  0
    7.4954   -4.1647   26.0163 C   0  0  2  0  0  0  0  0  0  0  0  0
    8.9071   -3.6923   26.4270 C   0  0  0  0  0  0  0  0  0  0  0  0
    9.5457   -5.0076   26.8891 C   0  0  0  0  0  0  0  0  0  0  0  0
    8.3970   -6.0135   26.6327 C   0  0  1  0  0  0  0  0  0  0  0  0
    7.3537   -5.8001   27.7490 C   0  0  0  0  0  0  0  0  0  0  0  0
    6.7148   -4.4692   27.3135 C   0  0  0  0  0  0  0  0  0  0  0  0
  1  2  3  0
  2  3  1  0
  3  4  1  0
  4  5  2  0
  4  6  1  0
  6  7  1  0
  7  8  1  1
  8  9  1  0
 10  9  1  1
 10 11  1  0
 10  6  1  0
 11 12  1  0
 12  7  1  0
M  END
>  <Hit>  (411) 
Mpro-x0991_0

>  <Receptor>  (411) 
Mpro-x0874_0

>  <SCORE>  (411) 
-3.5465200000000001

>  <SCORE.norm>  (411) 
-0.29554399999999997

>  <SCORE.heavy>  (411) 
12

>  <OrigSmiles>  (411) 
C#CCC(=O)N1C2CCC1CC2

>  <SuCOS_Score>  (411) 
0.51714714573883436

>  <Max_SuCOS_Score>  (411) 
0.51714714573883436

>  <Cum_SuCOS_Score>  (411) 
1.9210091756651904

>  <TransFSScore_50nM>  (411) 
0.0046620000000000003

>  <TransFSScore_1uM>  (411) 
0.091800000000000007

>  <TransFSScore_10nM>  (411) 
0.0043350000000000003

>  <TransFSScore_200nM>  (411) 
0.042247

>  <TransFSScore>  (411) 
0.035761000000000001

>  <FeatureSteinScore>  (411) 
0.3637205996485805

>  <XCos_RefMols>  (411) 
x0749_0

>  <XCos_NumHits>  (411) 
1

>  <XCos_Score1>  (411) 
7.4079

>  <XCos_Score2>  (411) 
0.0000

>  <XCos_Score3>  (411) 
0.0000

$$$$
C#CCC(=O)N1C2CCC1CC2
     RDKit          3D

 12 13  0  0  0  0  0  0  0  0999 V2000
    9.3868   -2.6347   22.4496 C   0  0  0  0  0  0  0  0  0  0  0  0
    8.7246   -3.6167   22.6746 C   0  0  0  0  0  0  0  0  0  0  0  0
    7.9174   -4.8156   22.9487 C   0  0  0  0  0  0  0  0  0  0  0  0
    8.4273   -5.5262   24.1774 C   0  0  0  0  0  0  0  0  0  0  0  0
    9.4608   -6.1775   24.0943 O   0  0  0  0  0  0  0  0  0  0  0  0
    7.6544   -5.5125   25.4129 N   0  0  0  0  0  0  0  0  0  0  0  0
    7.4403   -4.1831   25.9882 C   0  0  2  0  0  0  0  0  0  0  0  0
    8.8467   -3.7141   26.4204 C   0  0  0  0  0  0  0  0  0  0  0  0
    9.4792   -5.0329   26.8808 C   0  0  0  0  0  0  0  0  0  0  0  0
    8.3338   -6.0367   26.6021 C   0  0  1  0  0  0  0  0  0  0  0  0
    7.2763   -5.8314   27.7066 C   0  0  0  0  0  0  0  0  0  0  0  0
    6.6431   -4.4971   27.2729 C   0  0  0  0  0  0  0  0  0  0  0  0
  1  2  3  0
  2  3  1  0
  3  4  1  0
  4  5  2  0
  4  6  1  0
  6  7  1  0
  7  8  1  1
  8  9  1  0
 10  9  1  1
 10 11  1  0
 10  6  1  0
 11 12  1  0
 12  7  1  0
M  END
>  <Hit>  (412) 
Mpro-x0991_0

>  <Receptor>  (412) 
Mpro-x0874_0

>  <SCORE>  (412) 
-3.55748

>  <SCORE.norm>  (412) 
-0.29645700000000003

>  <SCORE.heavy>  (412) 
12

>  <OrigSmiles>  (412) 
C#CCC(=O)N1C2CCC1CC2

>  <SuCOS_Score>  (412) 
0.50893975582396656

>  <Max_SuCOS_Score>  (412) 
0.50893975582396656

>  <Cum_SuCOS_Score>  (412) 
1.90229981568193

>  <TransFSScore_50nM>  (412) 
0.0050569999999999999

>  <TransFSScore_1uM>  (412) 
0.087687000000000001

>  <TransFSScore_10nM>  (412) 
0.0038159999999999999

>  <TransFSScore_200nM>  (412) 
0.038294000000000002

>  <TransFSScore>  (412) 
0.0337135

>  <FeatureSteinScore>  (412) 
0.3445461866384032

>  <XCos_RefMols>  (412) 
x0749_0

>  <XCos_NumHits>  (412) 
1

>  <XCos_Score1>  (412) 
7.3897

>  <XCos_Score2>  (412) 
0.0000

>  <XCos_Score3>  (412) 
0.0000

$$$$
C#CCC(=O)N1C2CCC1CC2
     RDKit          3D

 12 13  0  0  0  0  0  0  0  0999 V2000
    9.9729   -2.3975   22.9757 C   0  0  0  0  0  0  0  0  0  0  0  0
    9.2199   -3.3203   23.1627 C   0  0  0  0  0  0  0  0  0  0  0  0
    8.3005   -4.4456   23.3915 C   0  0  0  0  0  0  0  0  0  0  0  0
    8.7667   -5.2798   24.5582 C   0  0  0  0  0  0  0  0  0  0  0  0
    9.8008   -5.9255   24.4441 O   0  0  0  0  0  0  0  0  0  0  0  0
    7.9525   -5.3865   25.7622 N   0  0  0  0  0  0  0  0  0  0  0  0
    7.7223   -4.1210   26.4617 C   0  0  2  0  0  0  0  0  0  0  0  0
    9.1145   -3.7064   26.9860 C   0  0  0  0  0  0  0  0  0  0  0  0
    9.7277   -5.0688   27.3313 C   0  0  0  0  0  0  0  0  0  0  0  0
    8.5898   -6.0324   26.9142 C   0  0  1  0  0  0  0  0  0  0  0  0
    7.4960   -5.9336   27.9978 C   0  0  0  0  0  0  0  0  0  0  0  0
    6.8813   -4.5585   27.6806 C   0  0  0  0  0  0  0  0  0  0  0  0
  1  2  3  0
  2  3  1  0
  3  4  1  0
  4  5  2  0
  4  6  1  0
  6  7  1  0
  7  8  1  1
  8  9  1  0
 10  9  1  1
 10 11  1  0
 10  6  1  0
 11 12  1  0
 12  7  1  0
M  END
>  <Hit>  (413) 
Mpro-x0991_0

>  <Receptor>  (413) 
Mpro-x0305_0

>  <SCORE>  (413) 
-3.5718399999999999

>  <SCORE.norm>  (413) 
-0.297653

>  <SCORE.heavy>  (413) 
12

>  <OrigSmiles>  (413) 
C#CCC(=O)N1C2CCC1CC2

>  <SuCOS_Score>  (413) 
0.61072712423303677

>  <Max_SuCOS_Score>  (413) 
0.61072712423303677

>  <Cum_SuCOS_Score>  (413) 
2.2241940939835723

>  <TransFSScore_50nM>  (413) 
0.0064700000000000001

>  <TransFSScore_1uM>  (413) 
0.057255

>  <TransFSScore_10nM>  (413) 
0.0043109999999999997

>  <TransFSScore_200nM>  (413) 
0.076991000000000004

>  <TransFSScore>  (413) 
0.036256750000000004

>  <FeatureSteinScore>  (413) 
0.59565560833599651

>  <XCos_RefMols>  (413) 
x1392_0

>  <XCos_NumHits>  (413) 
1

>  <XCos_Score1>  (413) 
7.9547

>  <XCos_Score2>  (413) 
0.0449

>  <XCos_Score3>  (413) 
0.0056

$$$$
C#CCC(=O)N1C2CCC1CC2
     RDKit          3D

 12 13  0  0  0  0  0  0  0  0999 V2000
    9.2874   -2.6313   22.5030 C   0  0  0  0  0  0  0  0  0  0  0  0
    8.7028   -3.6677   22.6967 C   0  0  0  0  0  0  0  0  0  0  0  0
    7.9894   -4.9325   22.9320 C   0  0  0  0  0  0  0  0  0  0  0  0
    8.5021   -5.6036   24.1815 C   0  0  0  0  0  0  0  0  0  0  0  0
    9.5404   -6.2496   24.1190 O   0  0  0  0  0  0  0  0  0  0  0  0
    7.7269   -5.5597   25.4148 N   0  0  0  0  0  0  0  0  0  0  0  0
    7.5022   -4.2159   25.9511 C   0  0  2  0  0  0  0  0  0  0  0  0
    8.9045   -3.7245   26.3719 C   0  0  0  0  0  0  0  0  0  0  0  0
    9.5455   -5.0249   26.8712 C   0  0  0  0  0  0  0  0  0  0  0  0
    8.4077   -6.0444   26.6198 C   0  0  1  0  0  0  0  0  0  0  0  0
    7.3467   -5.8149   27.7162 C   0  0  0  0  0  0  0  0  0  0  0  0
    6.7050   -4.4983   27.2431 C   0  0  0  0  0  0  0  0  0  0  0  0
  1  2  3  0
  2  3  1  0
  3  4  1  0
  4  5  2  0
  4  6  1  0
  6  7  1  0
  7  8  1  1
  8  9  1  0
 10  9  1  1
 10 11  1  0
 10  6  1  0
 11 12  1  0
 12  7  1  0
M  END
>  <Hit>  (414) 
Mpro-x0991_0

>  <Receptor>  (414) 
Mpro-x0874_0

>  <SCORE>  (414) 
-3.5802200000000002

>  <SCORE.norm>  (414) 
-0.29835200000000001

>  <SCORE.heavy>  (414) 
12

>  <OrigSmiles>  (414) 
C#CCC(=O)N1C2CCC1CC2

>  <SuCOS_Score>  (414) 
0.51088638704920109

>  <Max_SuCOS_Score>  (414) 
0.51088638704920109

>  <Cum_SuCOS_Score>  (414) 
1.9037544366326491

>  <TransFSScore_50nM>  (414) 
0.0046709999999999998

>  <TransFSScore_1uM>  (414) 
0.094208

>  <TransFSScore_10nM>  (414) 
0.003718

>  <TransFSScore_200nM>  (414) 
0.045346999999999998

>  <TransFSScore>  (414) 
0.036985999999999998

>  <FeatureSteinScore>  (414) 
0.3388021764712893

>  <XCos_RefMols>  (414) 
x0749_0

>  <XCos_NumHits>  (414) 
1

>  <XCos_Score1>  (414) 
7.3468

>  <XCos_Score2>  (414) 
0.0000

>  <XCos_Score3>  (414) 
0.0000

$$$$
C#CCC(=O)N1C2CCC1CC2
     RDKit          3D

 12 13  0  0  0  0  0  0  0  0999 V2000
    9.3107   -2.6286   22.4790 C   0  0  0  0  0  0  0  0  0  0  0  0
    8.6865   -3.6372   22.6947 C   0  0  0  0  0  0  0  0  0  0  0  0
    7.9241   -4.8676   22.9573 C   0  0  0  0  0  0  0  0  0  0  0  0
    8.4467   -5.5596   24.1912 C   0  0  0  0  0  0  0  0  0  0  0  0
    9.4788   -6.2130   24.1069 O   0  0  0  0  0  0  0  0  0  0  0  0
    7.6873   -5.5263   25.4346 N   0  0  0  0  0  0  0  0  0  0  0  0
    7.4803   -4.1880   25.9917 C   0  0  2  0  0  0  0  0  0  0  0  0
    8.8917   -3.7137   26.4015 C   0  0  0  0  0  0  0  0  0  0  0  0
    9.5282   -5.0259   26.8751 C   0  0  0  0  0  0  0  0  0  0  0  0
    8.3790   -6.0327   26.6243 C   0  0  1  0  0  0  0  0  0  0  0  0
    7.3337   -5.8096   27.7368 C   0  0  0  0  0  0  0  0  0  0  0  0
    6.6969   -4.4816   27.2896 C   0  0  0  0  0  0  0  0  0  0  0  0
  1  2  3  0
  2  3  1  0
  3  4  1  0
  4  5  2  0
  4  6  1  0
  6  7  1  0
  7  8  1  1
  8  9  1  0
 10  9  1  1
 10 11  1  0
 10  6  1  0
 11 12  1  0
 12  7  1  0
M  END
>  <Hit>  (415) 
Mpro-x0991_0

>  <Receptor>  (415) 
Mpro-x0874_0

>  <SCORE>  (415) 
-3.58934

>  <SCORE.norm>  (415) 
-0.29911199999999999

>  <SCORE.heavy>  (415) 
12

>  <OrigSmiles>  (415) 
C#CCC(=O)N1C2CCC1CC2

>  <SuCOS_Score>  (415) 
0.51355064244426352

>  <Max_SuCOS_Score>  (415) 
0.51355064244426352

>  <Cum_SuCOS_Score>  (415) 
1.9019877505961567

>  <TransFSScore_50nM>  (415) 
0.0048609999999999999

>  <TransFSScore_1uM>  (415) 
0.093976000000000004

>  <TransFSScore_10nM>  (415) 
0.0039519999999999998

>  <TransFSScore_200nM>  (415) 
0.040973000000000002

>  <TransFSScore>  (415) 
0.0359405

>  <FeatureSteinScore>  (415) 
0.35154805508323794

>  <XCos_RefMols>  (415) 
x0749_0

>  <XCos_NumHits>  (415) 
1

>  <XCos_Score1>  (415) 
7.3822

>  <XCos_Score2>  (415) 
0.0000

>  <XCos_Score3>  (415) 
0.0000

$$$$
C#CCC(=O)N1C2CCC1CC2
     RDKit          3D

 12 13  0  0  0  0  0  0  0  0999 V2000
   10.0049   -2.3837   22.9772 C   0  0  0  0  0  0  0  0  0  0  0  0
    9.2212   -3.2756   23.1867 C   0  0  0  0  0  0  0  0  0  0  0  0
    8.2641   -4.3631   23.4425 C   0  0  0  0  0  0  0  0  0  0  0  0
    8.7395   -5.2277   24.5831 C   0  0  0  0  0  0  0  0  0  0  0  0
    9.7654   -5.8804   24.4390 O   0  0  0  0  0  0  0  0  0  0  0  0
    7.9422   -5.3539   25.7965 N   0  0  0  0  0  0  0  0  0  0  0  0
    7.7348   -4.1023   26.5276 C   0  0  2  0  0  0  0  0  0  0  0  0
    9.1386   -3.7128   27.0399 C   0  0  0  0  0  0  0  0  0  0  0  0
    9.7436   -5.0883   27.3454 C   0  0  0  0  0  0  0  0  0  0  0  0
    8.5903   -6.0315   26.9240 C   0  0  1  0  0  0  0  0  0  0  0  0
    7.5138   -5.9469   28.0260 C   0  0  0  0  0  0  0  0  0  0  0  0
    6.9078   -4.5593   27.7489 C   0  0  0  0  0  0  0  0  0  0  0  0
  1  2  3  0
  2  3  1  0
  3  4  1  0
  4  5  2  0
  4  6  1  0
  6  7  1  0
  7  8  1  1
  8  9  1  0
 10  9  1  1
 10 11  1  0
 10  6  1  0
 11 12  1  0
 12  7  1  0
M  END
>  <Hit>  (416) 
Mpro-x0991_0

>  <Receptor>  (416) 
Mpro-x0305_0

>  <SCORE>  (416) 
-3.5901000000000001

>  <SCORE.norm>  (416) 
-0.29917500000000002

>  <SCORE.heavy>  (416) 
12

>  <OrigSmiles>  (416) 
C#CCC(=O)N1C2CCC1CC2

>  <SuCOS_Score>  (416) 
0.61952131528241328

>  <Max_SuCOS_Score>  (416) 
0.61952131528241328

>  <Cum_SuCOS_Score>  (416) 
2.2411371299246596

>  <TransFSScore_50nM>  (416) 
0.0060660000000000002

>  <TransFSScore_1uM>  (416) 
0.055629999999999999

>  <TransFSScore_10nM>  (416) 
0.0045199999999999997

>  <TransFSScore_200nM>  (416) 
0.074241000000000001

>  <TransFSScore>  (416) 
0.03511425

>  <FeatureSteinScore>  (416) 
0.62567711340955934

>  <XCos_RefMols>  (416) 
x1392_0

>  <XCos_NumHits>  (416) 
1

>  <XCos_Score1>  (416) 
8.0914

>  <XCos_Score2>  (416) 
0.0457

>  <XCos_Score3>  (416) 
0.0056

$$$$
C#CCC(=O)N1C2CCC1CC2
     RDKit          3D

 12 13  0  0  0  0  0  0  0  0999 V2000
   10.0005   -2.4173   22.9510 C   0  0  0  0  0  0  0  0  0  0  0  0
    9.2087   -3.2968   23.1812 C   0  0  0  0  0  0  0  0  0  0  0  0
    8.2428   -4.3699   23.4631 C   0  0  0  0  0  0  0  0  0  0  0  0
    8.7317   -5.2364   24.5964 C   0  0  0  0  0  0  0  0  0  0  0  0
    9.7601   -5.8827   24.4418 O   0  0  0  0  0  0  0  0  0  0  0  0
    7.9446   -5.3719   25.8154 N   0  0  0  0  0  0  0  0  0  0  0  0
    7.7359   -4.1244   26.5532 C   0  0  2  0  0  0  0  0  0  0  0  0
    9.1414   -3.7291   27.0563 C   0  0  0  0  0  0  0  0  0  0  0  0
    9.7563   -5.1025   27.3515 C   0  0  0  0  0  0  0  0  0  0  0  0
    8.6051   -6.0504   26.9352 C   0  0  1  0  0  0  0  0  0  0  0  0
    7.5366   -5.9762   28.0457 C   0  0  0  0  0  0  0  0  0  0  0  0
    6.9209   -4.5910   27.7790 C   0  0  0  0  0  0  0  0  0  0  0  0
  1  2  3  0
  2  3  1  0
  3  4  1  0
  4  5  2  0
  4  6  1  0
  6  7  1  0
  7  8  1  1
  8  9  1  0
 10  9  1  1
 10 11  1  0
 10  6  1  0
 11 12  1  0
 12  7  1  0
M  END
>  <Hit>  (417) 
Mpro-x0991_0

>  <Receptor>  (417) 
Mpro-x0305_0

>  <SCORE>  (417) 
-3.5904799999999999

>  <SCORE.norm>  (417) 
-0.29920600000000003

>  <SCORE.heavy>  (417) 
12

>  <OrigSmiles>  (417) 
C#CCC(=O)N1C2CCC1CC2

>  <SuCOS_Score>  (417) 
0.62502644852609812

>  <Max_SuCOS_Score>  (417) 
0.62502644852609812

>  <Cum_SuCOS_Score>  (417) 
2.232416223052641

>  <TransFSScore_50nM>  (417) 
0.0059059999999999998

>  <TransFSScore_1uM>  (417) 
0.058014000000000003

>  <TransFSScore_10nM>  (417) 
0.004496

>  <TransFSScore_200nM>  (417) 
0.072260000000000005

>  <TransFSScore>  (417) 
0.035169000000000006

>  <FeatureSteinScore>  (417) 
0.63398349206825289

>  <XCos_RefMols>  (417) 
x1392_0

>  <XCos_NumHits>  (417) 
1

>  <XCos_Score1>  (417) 
8.0583

>  <XCos_Score2>  (417) 
0.0455

>  <XCos_Score3>  (417) 
0.0056

$$$$
C#CCC(=O)N1C2CCC1CC2
     RDKit          3D

 12 13  0  0  0  0  0  0  0  0999 V2000
   10.1187   -2.4330   22.8392 C   0  0  0  0  0  0  0  0  0  0  0  0
    9.2724   -3.2395   23.1338 C   0  0  0  0  0  0  0  0  0  0  0  0
    8.2397   -4.2240   23.4924 C   0  0  0  0  0  0  0  0  0  0  0  0
    8.7272   -5.1201   24.6031 C   0  0  0  0  0  0  0  0  0  0  0  0
    9.7619   -5.7534   24.4372 O   0  0  0  0  0  0  0  0  0  0  0  0
    7.9322   -5.2980   25.8115 N   0  0  0  0  0  0  0  0  0  0  0  0
    7.7080   -4.0748   26.5845 C   0  0  2  0  0  0  0  0  0  0  0  0
    9.1065   -3.6837   27.1099 C   0  0  0  0  0  0  0  0  0  0  0  0
    9.7303   -5.0604   27.3687 C   0  0  0  0  0  0  0  0  0  0  0  0
    8.5899   -6.0044   26.9156 C   0  0  1  0  0  0  0  0  0  0  0  0
    7.5126   -5.9718   28.0196 C   0  0  0  0  0  0  0  0  0  0  0  0
    6.8878   -4.5841   27.7896 C   0  0  0  0  0  0  0  0  0  0  0  0
  1  2  3  0
  2  3  1  0
  3  4  1  0
  4  5  2  0
  4  6  1  0
  6  7  1  0
  7  8  1  1
  8  9  1  0
 10  9  1  1
 10 11  1  0
 10  6  1  0
 11 12  1  0
 12  7  1  0
M  END
>  <Hit>  (418) 
Mpro-x0991_0

>  <Receptor>  (418) 
Mpro-x0305_0

>  <SCORE>  (418) 
-3.59354

>  <SCORE.norm>  (418) 
-0.29946099999999998

>  <SCORE.heavy>  (418) 
12

>  <OrigSmiles>  (418) 
C#CCC(=O)N1C2CCC1CC2

>  <SuCOS_Score>  (418) 
0.6199712680209668

>  <Max_SuCOS_Score>  (418) 
0.6199712680209668

>  <Cum_SuCOS_Score>  (418) 
2.2410913077575545

>  <TransFSScore_50nM>  (418) 
0.0055259999999999997

>  <TransFSScore_1uM>  (418) 
0.052276999999999997

>  <TransFSScore_10nM>  (418) 
0.0051279999999999997

>  <TransFSScore_200nM>  (418) 
0.067715999999999998

>  <TransFSScore>  (418) 
0.032661749999999996

>  <FeatureSteinScore>  (418) 
0.64520614744745763

>  <XCos_RefMols>  (418) 
x1392_0

>  <XCos_NumHits>  (418) 
1

>  <XCos_Score1>  (418) 
8.2356

>  <XCos_Score2>  (418) 
0.0465

>  <XCos_Score3>  (418) 
0.0056

$$$$
C#CCC(=O)N1C2CCC1CC2
     RDKit          3D

 12 13  0  0  0  0  0  0  0  0999 V2000
    9.5793   -2.6244   22.6888 C   0  0  0  0  0  0  0  0  0  0  0  0
    8.8419   -3.5116   23.0390 C   0  0  0  0  0  0  0  0  0  0  0  0
    7.9413   -4.5935   23.4663 C   0  0  0  0  0  0  0  0  0  0  0  0
    8.5549   -5.3743   24.6013 C   0  0  0  0  0  0  0  0  0  0  0  0
    9.6128   -5.9598   24.4085 O   0  0  0  0  0  0  0  0  0  0  0  0
    7.8541   -5.5040   25.8725 N   0  0  0  0  0  0  0  0  0  0  0  0
    7.6080   -4.2401   26.5695 C   0  0  2  0  0  0  0  0  0  0  0  0
    9.0120   -3.7331   26.9653 C   0  0  0  0  0  0  0  0  0  0  0  0
    9.7339   -5.0494   27.2775 C   0  0  0  0  0  0  0  0  0  0  0  0
    8.6253   -6.0870   26.9752 C   0  0  1  0  0  0  0  0  0  0  0  0
    7.6238   -6.0307   28.1474 C   0  0  0  0  0  0  0  0  0  0  0  0
    6.9020   -4.7013   27.8631 C   0  0  0  0  0  0  0  0  0  0  0  0
  1  2  3  0
  2  3  1  0
  3  4  1  0
  4  5  2  0
  4  6  1  0
  6  7  1  0
  7  8  1  1
  8  9  1  0
 10  9  1  1
 10 11  1  0
 10  6  1  0
 11 12  1  0
 12  7  1  0
M  END
>  <Hit>  (419) 
Mpro-x0991_0

>  <Receptor>  (419) 
Mpro-x0305_0

>  <SCORE>  (419) 
-3.6298699999999999

>  <SCORE.norm>  (419) 
-0.30248900000000001

>  <SCORE.heavy>  (419) 
12

>  <OrigSmiles>  (419) 
C#CCC(=O)N1C2CCC1CC2

>  <SuCOS_Score>  (419) 
0.63602523519523846

>  <Max_SuCOS_Score>  (419) 
0.63602523519523846

>  <Cum_SuCOS_Score>  (419) 
2.0798724172131822

>  <TransFSScore_50nM>  (419) 
0.0054640000000000001

>  <TransFSScore_1uM>  (419) 
0.077440999999999996

>  <TransFSScore_10nM>  (419) 
0.0041269999999999996

>  <TransFSScore_200nM>  (419) 
0.058804000000000002

>  <TransFSScore>  (419) 
0.036458999999999998

>  <FeatureSteinScore>  (419) 
0.63784940887747421

>  <XCos_RefMols>  (419) 
x1392_0

>  <XCos_NumHits>  (419) 
1

>  <XCos_Score1>  (419) 
7.9109

>  <XCos_Score2>  (419) 
0.0447

>  <XCos_Score3>  (419) 
0.0056

$$$$
C#CCC(=O)N1C2CCC1CNC2
     RDKit          3D

 13 14  0  0  0  0  0  0  0  0999 V2000
   11.0753   -2.5279   23.3261 C   0  0  0  0  0  0  0  0  0  0  0  0
   10.0039   -3.0354   23.5453 C   0  0  0  0  0  0  0  0  0  0  0  0
    8.6958   -3.6563   23.8148 C   0  0  0  0  0  0  0  0  0  0  0  0
    8.7166   -4.4963   25.0672 C   0  0  0  0  0  0  0  0  0  0  0  0
    8.8587   -5.7482   24.9874 O   0  0  0  0  0  0  0  0  0  0  0  0
    8.5417   -3.8863   26.3595 N   0  0  0  0  0  0  0  0  0  0  0  0
    7.4118   -4.0916   27.2429 C   0  0  2  0  0  0  0  0  0  0  0  0
    7.4829   -2.8871   28.1909 C   0  0  0  0  0  0  0  0  0  0  0  0
    8.9672   -2.4812   28.1805 C   0  0  0  0  0  0  0  0  0  0  0  0
    9.6281   -3.4869   27.2288 C   0  0  1  0  0  0  0  0  0  0  0  0
   10.0806   -4.7557   27.9931 C   0  0  0  0  0  0  0  0  0  0  0  0
    8.9634   -5.3798   28.7459 N   0  0  0  0  0  0  0  0  0  0  0  0
    7.6759   -5.4121   28.0074 C   0  0  0  0  0  0  0  0  0  0  0  0
  1  2  3  0
  2  3  1  0
  3  4  1  0
  4  5  2  0
  4  6  1  0
  6  7  1  0
  7  8  1  1
  8  9  1  0
 10  9  1  1
 10 11  1  0
 10  6  1  0
 11 12  1  0
 12 13  1  0
 13  7  1  0
M  END
>  <Hit>  (420) 
Mpro-x0991_0

>  <Receptor>  (420) 
Mpro-x0387_0

>  <SCORE>  (420) 
-4.5063800000000001

>  <SCORE.norm>  (420) 
-0.34664400000000001

>  <SCORE.heavy>  (420) 
13

>  <OrigSmiles>  (420) 
C#CCC(=O)N1C2CCC1CNC2

>  <SuCOS_Score>  (420) 
0.45857914688835177

>  <Max_SuCOS_Score>  (420) 
0.45857914688835177

>  <Cum_SuCOS_Score>  (420) 
2.1953487539017527

>  <TransFSScore_50nM>  (420) 
0.015169999999999999

>  <TransFSScore_1uM>  (420) 
0.372616

>  <TransFSScore_10nM>  (420) 
0.0054920000000000004

>  <TransFSScore_200nM>  (420) 
0.13626199999999999

>  <TransFSScore>  (420) 
0.132385

>  <FeatureSteinScore>  (420) 
0.35567885377944997

>  <XCos_RefMols>  (420) 
x1392_0,x1077_0

>  <XCos_NumHits>  (420) 
2

>  <XCos_Score1>  (420) 
7.7292

>  <XCos_Score2>  (420) 
0.0000

>  <XCos_Score3>  (420) 
0.0000

$$$$
C#CCC(=O)N1C2CCC1CNC2
     RDKit          3D

 13 14  0  0  0  0  0  0  0  0999 V2000
    9.2745   -2.3780   21.7891 C   0  0  0  0  0  0  0  0  0  0  0  0
    8.4611   -3.2323   22.0378 C   0  0  0  0  0  0  0  0  0  0  0  0
    7.4677   -4.2735   22.3383 C   0  0  0  0  0  0  0  0  0  0  0  0
    8.1287   -5.4408   23.0155 C   0  0  0  0  0  0  0  0  0  0  0  0
    8.2644   -6.5192   22.3767 O   0  0  0  0  0  0  0  0  0  0  0  0
    8.5602   -5.3661   24.3875 N   0  0  0  0  0  0  0  0  0  0  0  0
    7.7012   -5.1822   25.5402 C   0  0  1  0  0  0  0  0  0  0  0  0
    8.5648   -5.6888   26.7036 C   0  0  0  0  0  0  0  0  0  0  0  0
   10.0126   -5.4998   26.2151 C   0  0  0  0  0  0  0  0  0  0  0  0
    9.8638   -4.8990   24.8106 C   0  0  2  0  0  0  0  0  0  0  0  0
    9.7793   -3.3557   24.8856 C   0  0  0  0  0  0  0  0  0  0  0  0
    8.7285   -2.9239   25.8355 N   0  0  0  0  0  0  0  0  0  0  0  0
    7.4540   -3.6599   25.6713 C   0  0  0  0  0  0  0  0  0  0  0  0
  1  2  3  0
  2  3  1  0
  3  4  1  0
  4  5  2  0
  4  6  1  0
  6  7  1  0
  7  8  1  1
  8  9  1  0
 10  9  1  1
 10 11  1  0
 10  6  1  0
 11 12  1  0
 12 13  1  0
 13  7  1  0
M  END
>  <Hit>  (421) 
Mpro-x0991_0

>  <Receptor>  (421) 
Mpro-x0874_0

>  <SCORE>  (421) 
-4.6677799999999996

>  <SCORE.norm>  (421) 
-0.35905999999999999

>  <SCORE.heavy>  (421) 
13

>  <OrigSmiles>  (421) 
C#CCC(=O)N1C2CCC1CNC2

>  <SuCOS_Score>  (421) 
0.48128292077936496

>  <Max_SuCOS_Score>  (421) 
0.48128292077936496

>  <Cum_SuCOS_Score>  (421) 
2.1573961822343604

>  <TransFSScore_50nM>  (421) 
0.023744999999999999

>  <TransFSScore_1uM>  (421) 
0.40715400000000002

>  <TransFSScore_10nM>  (421) 
0.0054790000000000004

>  <TransFSScore_200nM>  (421) 
0.092395000000000005

>  <TransFSScore>  (421) 
0.13219325000000001

>  <FeatureSteinScore>  (421) 
0.1552965895062168

>  <XCos_RefMols>  (421) 
x1392_0

>  <XCos_NumHits>  (421) 
1

>  <XCos_Score1>  (421) 
7.3251

>  <XCos_Score2>  (421) 
0.0000

>  <XCos_Score3>  (421) 
0.0000

$$$$
C#CCC(=O)N1C2CCC1CNC2
     RDKit          3D

 13 14  0  0  0  0  0  0  0  0999 V2000
    9.3584   -2.1457   21.5632 C   0  0  0  0  0  0  0  0  0  0  0  0
    8.5023   -2.9119   21.9288 C   0  0  0  0  0  0  0  0  0  0  0  0
    7.4550   -3.8468   22.3742 C   0  0  0  0  0  0  0  0  0  0  0  0
    8.0359   -5.1264   22.9217 C   0  0  0  0  0  0  0  0  0  0  0  0
    8.1003   -6.1551   22.1927 O   0  0  0  0  0  0  0  0  0  0  0  0
    8.4900   -5.1980   24.2860 N   0  0  0  0  0  0  0  0  0  0  0  0
    9.7787   -4.7466   24.7706 C   0  0  2  0  0  0  0  0  0  0  0  0
    9.9279   -5.4805   26.1099 C   0  0  0  0  0  0  0  0  0  0  0  0
    8.4812   -5.7525   26.5584 C   0  0  0  0  0  0  0  0  0  0  0  0
    7.6189   -5.1508   25.4411 C   0  0  1  0  0  0  0  0  0  0  0  0
    7.3208   -3.6562   25.7174 C   0  0  0  0  0  0  0  0  0  0  0  0
    8.5632   -2.8698   25.9222 N   0  0  0  0  0  0  0  0  0  0  0  0
    9.6640   -3.2177   24.9888 C   0  0  0  0  0  0  0  0  0  0  0  0
  1  2  3  0
  2  3  1  0
  3  4  1  0
  4  5  2  0
  4  6  1  0
  6  7  1  0
  7  8  1  1
  8  9  1  0
 10  9  1  1
 10 11  1  0
 10  6  1  0
 11 12  1  0
 12 13  1  0
 13  7  1  0
M  END
>  <Hit>  (422) 
Mpro-x0991_0

>  <Receptor>  (422) 
Mpro-x0874_0

>  <SCORE>  (422) 
-5.3418999999999999

>  <SCORE.norm>  (422) 
-0.41091499999999997

>  <SCORE.heavy>  (422) 
13

>  <OrigSmiles>  (422) 
C#CCC(=O)N1C2CCC1CNC2

>  <SuCOS_Score>  (422) 
0.46818615049711054

>  <Max_SuCOS_Score>  (422) 
0.46818615049711054

>  <Cum_SuCOS_Score>  (422) 
2.1781790568769357

>  <TransFSScore_50nM>  (422) 
0.026009000000000001

>  <TransFSScore_1uM>  (422) 
0.43393700000000002

>  <TransFSScore_10nM>  (422) 
0.0033509999999999998

>  <TransFSScore_200nM>  (422) 
0.11423700000000001

>  <TransFSScore>  (422) 
0.1443835

>  <FeatureSteinScore>  (422) 
0.1469313538694389

>  <XCos_RefMols>  (422) 
x1392_0

>  <XCos_NumHits>  (422) 
1

>  <XCos_Score1>  (422) 
7.6700

>  <XCos_Score2>  (422) 
0.0000

>  <XCos_Score3>  (422) 
0.0000

$$$$
C#CCC(=O)N1C2CCC1CNC2
     RDKit          3D

 13 14  0  0  0  0  0  0  0  0999 V2000
    9.0928   -2.3395   21.6627 C   0  0  0  0  0  0  0  0  0  0  0  0
    8.3212   -3.1991   22.0083 C   0  0  0  0  0  0  0  0  0  0  0  0
    7.3769   -4.2479   22.4297 C   0  0  0  0  0  0  0  0  0  0  0  0
    8.0817   -5.4208   23.0638 C   0  0  0  0  0  0  0  0  0  0  0  0
    8.2669   -6.4806   22.4032 O   0  0  0  0  0  0  0  0  0  0  0  0
    8.5190   -5.3571   24.4340 N   0  0  0  0  0  0  0  0  0  0  0  0
    9.8226   -4.9123   24.8833 C   0  0  2  0  0  0  0  0  0  0  0  0
    9.9245   -5.4950   26.2992 C   0  0  0  0  0  0  0  0  0  0  0  0
    8.4625   -5.6483   26.7542 C   0  0  0  0  0  0  0  0  0  0  0  0
    7.6400   -5.1394   25.5633 C   0  0  1  0  0  0  0  0  0  0  0  0
    7.4093   -3.6111   25.6640 C   0  0  0  0  0  0  0  0  0  0  0  0
    8.6851   -2.8635   25.7968 N   0  0  0  0  0  0  0  0  0  0  0  0
    9.7773   -3.3649   24.9252 C   0  0  0  0  0  0  0  0  0  0  0  0
  1  2  3  0
  2  3  1  0
  3  4  1  0
  4  5  2  0
  4  6  1  0
  6  7  1  0
  7  8  1  1
  8  9  1  0
 10  9  1  1
 10 11  1  0
 10  6  1  0
 11 12  1  0
 12 13  1  0
 13  7  1  0
M  END
>  <Hit>  (423) 
Mpro-x0991_0

>  <Receptor>  (423) 
Mpro-x0874_0

>  <SCORE>  (423) 
-5.5511100000000004

>  <SCORE.norm>  (423) 
-0.427008

>  <SCORE.heavy>  (423) 
13

>  <OrigSmiles>  (423) 
C#CCC(=O)N1C2CCC1CNC2

>  <SuCOS_Score>  (423) 
0.47781961611878199

>  <Max_SuCOS_Score>  (423) 
0.47781961611878199

>  <Cum_SuCOS_Score>  (423) 
2.1245789926096976

>  <TransFSScore_50nM>  (423) 
0.023338000000000001

>  <TransFSScore_1uM>  (423) 
0.42136600000000002

>  <TransFSScore_10nM>  (423) 
0.0070239999999999999

>  <TransFSScore_200nM>  (423) 
0.081617999999999996

>  <TransFSScore>  (423) 
0.1333365

>  <FeatureSteinScore>  (423) 
0.16132813967903739

>  <XCos_RefMols>  (423) 
x1392_0

>  <XCos_NumHits>  (423) 
1

>  <XCos_Score1>  (423) 
7.3594

>  <XCos_Score2>  (423) 
0.0000

>  <XCos_Score3>  (423) 
0.0000

$$$$
C#CCC(=O)N1C2CCC1CNC2
     RDKit          3D

 13 14  0  0  0  0  0  0  0  0999 V2000
    9.7891   -2.2900   22.3027 C   0  0  0  0  0  0  0  0  0  0  0  0
    9.0495   -3.1908   22.6109 C   0  0  0  0  0  0  0  0  0  0  0  0
    8.1475   -4.2928   22.9868 C   0  0  0  0  0  0  0  0  0  0  0  0
    8.5734   -4.9579   24.2717 C   0  0  0  0  0  0  0  0  0  0  0  0
    9.2649   -6.0136   24.2391 O   0  0  0  0  0  0  0  0  0  0  0  0
    8.1692   -4.4173   25.5434 N   0  0  0  0  0  0  0  0  0  0  0  0
    6.9862   -4.8026   26.2859 C   0  0  2  0  0  0  0  0  0  0  0  0
    6.7800   -3.6293   27.2530 C   0  0  0  0  0  0  0  0  0  0  0  0
    8.1844   -3.0233   27.4216 C   0  0  0  0  0  0  0  0  0  0  0  0
    9.0832   -3.8992   26.5391 C   0  0  1  0  0  0  0  0  0  0  0  0
    9.6191   -5.1166   27.3327 C   0  0  0  0  0  0  0  0  0  0  0  0
    8.5221   -5.9108   27.9409 N   0  0  0  0  0  0  0  0  0  0  0  0
    7.3440   -6.0971   27.0570 C   0  0  0  0  0  0  0  0  0  0  0  0
  1  2  3  0
  2  3  1  0
  3  4  1  0
  4  5  2  0
  4  6  1  0
  6  7  1  0
  7  8  1  1
  8  9  1  0
 10  9  1  1
 10 11  1  0
 10  6  1  0
 11 12  1  0
 12 13  1  0
 13  7  1  0
M  END
>  <Hit>  (424) 
Mpro-x0991_0

>  <Receptor>  (424) 
Mpro-x0305_0

>  <SCORE>  (424) 
-6.9089999999999998

>  <SCORE.norm>  (424) 
-0.53146199999999999

>  <SCORE.heavy>  (424) 
13

>  <OrigSmiles>  (424) 
C#CCC(=O)N1C2CCC1CNC2

>  <SuCOS_Score>  (424) 
0.52991158816995432

>  <Max_SuCOS_Score>  (424) 
0.52991158816995432

>  <Cum_SuCOS_Score>  (424) 
2.1305458296680215

>  <TransFSScore_50nM>  (424) 
0.012781000000000001

>  <TransFSScore_1uM>  (424) 
0.27182499999999998

>  <TransFSScore_10nM>  (424) 
0.004829

>  <TransFSScore_200nM>  (424) 
0.092554999999999998

>  <TransFSScore>  (424) 
0.095497499999999999

>  <FeatureSteinScore>  (424) 
0.34442892839235079

>  <XCos_RefMols>  (424) 
x1392_0

>  <XCos_NumHits>  (424) 
1

>  <XCos_Score1>  (424) 
8.2134

>  <XCos_Score2>  (424) 
0.0000

>  <XCos_Score3>  (424) 
0.0000

$$$$
C#CCC(=O)N1C2CCC1CNC2
     RDKit          3D

 13 14  0  0  0  0  0  0  0  0999 V2000
    9.4510   -2.3694   22.1842 C   0  0  0  0  0  0  0  0  0  0  0  0
    8.8473   -3.3504   22.5403 C   0  0  0  0  0  0  0  0  0  0  0  0
    8.1093   -4.5477   22.9772 C   0  0  0  0  0  0  0  0  0  0  0  0
    8.6311   -5.0867   24.2856 C   0  0  0  0  0  0  0  0  0  0  0  0
    9.3864   -6.0982   24.2973 O   0  0  0  0  0  0  0  0  0  0  0  0
    8.2480   -4.4768   25.5322 N   0  0  0  0  0  0  0  0  0  0  0  0
    7.0435   -4.7731   26.2809 C   0  0  2  0  0  0  0  0  0  0  0  0
    6.8913   -3.5535   27.1997 C   0  0  0  0  0  0  0  0  0  0  0  0
    8.3234   -3.0120   27.3542 C   0  0  0  0  0  0  0  0  0  0  0  0
    9.1818   -3.9658   26.5132 C   0  0  1  0  0  0  0  0  0  0  0  0
    9.6520   -5.1760   27.3578 C   0  0  0  0  0  0  0  0  0  0  0  0
    8.5136   -5.8899   27.9890 N   0  0  0  0  0  0  0  0  0  0  0  0
    7.3321   -6.0522   27.1047 C   0  0  0  0  0  0  0  0  0  0  0  0
  1  2  3  0
  2  3  1  0
  3  4  1  0
  4  5  2  0
  4  6  1  0
  6  7  1  0
  7  8  1  1
  8  9  1  0
 10  9  1  1
 10 11  1  0
 10  6  1  0
 11 12  1  0
 12 13  1  0
 13  7  1  0
M  END
>  <Hit>  (425) 
Mpro-x0991_0

>  <Receptor>  (425) 
Mpro-x0305_0

>  <SCORE>  (425) 
-6.9094699999999998

>  <SCORE.norm>  (425) 
-0.53149800000000003

>  <SCORE.heavy>  (425) 
13

>  <OrigSmiles>  (425) 
C#CCC(=O)N1C2CCC1CNC2

>  <SuCOS_Score>  (425) 
0.54122454880066118

>  <Max_SuCOS_Score>  (425) 
0.54122454880066118

>  <Cum_SuCOS_Score>  (425) 
2.0506415804459315

>  <TransFSScore_50nM>  (425) 
0.010851

>  <TransFSScore_1uM>  (425) 
0.28729399999999999

>  <TransFSScore_10nM>  (425) 
0.0033839999999999999

>  <TransFSScore_200nM>  (425) 
0.077886999999999998

>  <TransFSScore>  (425) 
0.094853999999999994

>  <FeatureSteinScore>  (425) 
0.3125001974159291

>  <XCos_RefMols>  (425) 
x1392_0

>  <XCos_NumHits>  (425) 
1

>  <XCos_Score1>  (425) 
7.8222

>  <XCos_Score2>  (425) 
0.0000

>  <XCos_Score3>  (425) 
0.0000

$$$$
C#CCC(=O)N1C2CCC1CNC2
     RDKit          3D

 13 14  0  0  0  0  0  0  0  0999 V2000
    9.2714   -2.4000   22.0740 C   0  0  0  0  0  0  0  0  0  0  0  0
    8.6835   -3.3690   22.4852 C   0  0  0  0  0  0  0  0  0  0  0  0
    7.9643   -4.5530   22.9855 C   0  0  0  0  0  0  0  0  0  0  0  0
    8.5452   -5.0608   24.2814 C   0  0  0  0  0  0  0  0  0  0  0  0
    9.3661   -6.0199   24.2743 O   0  0  0  0  0  0  0  0  0  0  0  0
    8.1459   -4.4821   25.5378 N   0  0  0  0  0  0  0  0  0  0  0  0
    6.9632   -4.8414   26.2936 C   0  0  2  0  0  0  0  0  0  0  0  0
    6.7635   -3.6398   27.2269 C   0  0  0  0  0  0  0  0  0  0  0  0
    8.1705   -3.0344   27.3748 C   0  0  0  0  0  0  0  0  0  0  0  0
    9.0641   -3.9389   26.5161 C   0  0  1  0  0  0  0  0  0  0  0  0
    9.5972   -5.1348   27.3435 C   0  0  0  0  0  0  0  0  0  0  0  0
    8.4987   -5.9070   27.9767 N   0  0  0  0  0  0  0  0  0  0  0  0
    7.3179   -6.1143   27.1011 C   0  0  0  0  0  0  0  0  0  0  0  0
  1  2  3  0
  2  3  1  0
  3  4  1  0
  4  5  2  0
  4  6  1  0
  6  7  1  0
  7  8  1  1
  8  9  1  0
 10  9  1  1
 10 11  1  0
 10  6  1  0
 11 12  1  0
 12 13  1  0
 13  7  1  0
M  END
>  <Hit>  (426) 
Mpro-x0991_0

>  <Receptor>  (426) 
Mpro-x0305_0

>  <SCORE>  (426) 
-6.9164199999999996

>  <SCORE.norm>  (426) 
-0.53203299999999998

>  <SCORE.heavy>  (426) 
13

>  <OrigSmiles>  (426) 
C#CCC(=O)N1C2CCC1CNC2

>  <SuCOS_Score>  (426) 
0.53937840564280293

>  <Max_SuCOS_Score>  (426) 
0.53937840564280293

>  <Cum_SuCOS_Score>  (426) 
1.9759121514148743

>  <TransFSScore_50nM>  (426) 
0.010942

>  <TransFSScore_1uM>  (426) 
0.26126700000000003

>  <TransFSScore_10nM>  (426) 
0.0033430000000000001

>  <TransFSScore_200nM>  (426) 
0.063263

>  <TransFSScore>  (426) 
0.084703750000000008

>  <FeatureSteinScore>  (426) 
0.30618780335065693

>  <XCos_RefMols>  (426) 
x1392_0

>  <XCos_NumHits>  (426) 
1

>  <XCos_Score1>  (426) 
7.7381

>  <XCos_Score2>  (426) 
0.0000

>  <XCos_Score3>  (426) 
0.0000

$$$$
C#CCC(=O)N1C2CCC1CNC2
     RDKit          3D

 13 14  0  0  0  0  0  0  0  0999 V2000
    9.7558   -2.2411   22.3964 C   0  0  0  0  0  0  0  0  0  0  0  0
    9.0669   -3.1930   22.6662 C   0  0  0  0  0  0  0  0  0  0  0  0
    8.2234   -4.3548   22.9950 C   0  0  0  0  0  0  0  0  0  0  0  0
    8.6338   -5.0009   24.2945 C   0  0  0  0  0  0  0  0  0  0  0  0
    9.3222   -6.0591   24.2857 O   0  0  0  0  0  0  0  0  0  0  0  0
    8.2182   -4.4392   25.5533 N   0  0  0  0  0  0  0  0  0  0  0  0
    7.0167   -4.7958   26.2802 C   0  0  2  0  0  0  0  0  0  0  0  0
    6.8150   -3.6082   27.2308 C   0  0  0  0  0  0  0  0  0  0  0  0
    8.2267   -3.0246   27.4161 C   0  0  0  0  0  0  0  0  0  0  0  0
    9.1246   -3.9257   26.5583 C   0  0  1  0  0  0  0  0  0  0  0  0
    9.6261   -5.1430   27.3741 C   0  0  0  0  0  0  0  0  0  0  0  0
    8.5057   -5.9114   27.9726 N   0  0  0  0  0  0  0  0  0  0  0  0
    7.3392   -6.0874   27.0713 C   0  0  0  0  0  0  0  0  0  0  0  0
  1  2  3  0
  2  3  1  0
  3  4  1  0
  4  5  2  0
  4  6  1  0
  6  7  1  0
  7  8  1  1
  8  9  1  0
 10  9  1  1
 10 11  1  0
 10  6  1  0
 11 12  1  0
 12 13  1  0
 13  7  1  0
M  END
>  <Hit>  (427) 
Mpro-x0991_0

>  <Receptor>  (427) 
Mpro-x0305_0

>  <SCORE>  (427) 
-6.9224199999999998

>  <SCORE.norm>  (427) 
-0.53249400000000002

>  <SCORE.heavy>  (427) 
13

>  <OrigSmiles>  (427) 
C#CCC(=O)N1C2CCC1CNC2

>  <SuCOS_Score>  (427) 
0.53765542714134473

>  <Max_SuCOS_Score>  (427) 
0.53765542714134473

>  <Cum_SuCOS_Score>  (427) 
2.159980133056306

>  <TransFSScore_50nM>  (427) 
0.012272

>  <TransFSScore_1uM>  (427) 
0.27285399999999999

>  <TransFSScore_10nM>  (427) 
0.0042009999999999999

>  <TransFSScore_200nM>  (427) 
0.097386

>  <TransFSScore>  (427) 
0.096678249999999993

>  <FeatureSteinScore>  (427) 
0.3446622567675785

>  <XCos_RefMols>  (427) 
x1392_0

>  <XCos_NumHits>  (427) 
1

>  <XCos_Score1>  (427) 
8.1823

>  <XCos_Score2>  (427) 
0.0000

>  <XCos_Score3>  (427) 
0.0000

$$$$
C#CCC(=O)N1C2CCC1CNC2
     RDKit          3D

 13 14  0  0  0  0  0  0  0  0999 V2000
    9.5146   -2.2636   22.3119 C   0  0  0  0  0  0  0  0  0  0  0  0
    8.8855   -3.2461   22.6162 C   0  0  0  0  0  0  0  0  0  0  0  0
    8.1164   -4.4454   22.9897 C   0  0  0  0  0  0  0  0  0  0  0  0
    8.5895   -5.0360   24.2943 C   0  0  0  0  0  0  0  0  0  0  0  0
    9.3322   -6.0570   24.2945 O   0  0  0  0  0  0  0  0  0  0  0  0
    8.1737   -4.4648   25.5487 N   0  0  0  0  0  0  0  0  0  0  0  0
    6.9859   -4.8348   26.2913 C   0  0  2  0  0  0  0  0  0  0  0  0
    6.7688   -3.6381   27.2269 C   0  0  0  0  0  0  0  0  0  0  0  0
    8.1701   -3.0240   27.3913 C   0  0  0  0  0  0  0  0  0  0  0  0
    9.0784   -3.9191   26.5383 C   0  0  1  0  0  0  0  0  0  0  0  0
    9.6112   -5.1146   27.3666 C   0  0  0  0  0  0  0  0  0  0  0  0
    8.5116   -5.8965   27.9859 N   0  0  0  0  0  0  0  0  0  0  0  0
    7.3411   -6.1084   27.0976 C   0  0  0  0  0  0  0  0  0  0  0  0
  1  2  3  0
  2  3  1  0
  3  4  1  0
  4  5  2  0
  4  6  1  0
  6  7  1  0
  7  8  1  1
  8  9  1  0
 10  9  1  1
 10 11  1  0
 10  6  1  0
 11 12  1  0
 12 13  1  0
 13  7  1  0
M  END
>  <Hit>  (428) 
Mpro-x0991_0

>  <Receptor>  (428) 
Mpro-x0305_0

>  <SCORE>  (428) 
-6.9306799999999997

>  <SCORE.norm>  (428) 
-0.53312899999999996

>  <SCORE.heavy>  (428) 
13

>  <OrigSmiles>  (428) 
C#CCC(=O)N1C2CCC1CNC2

>  <SuCOS_Score>  (428) 
0.54040800261525346

>  <Max_SuCOS_Score>  (428) 
0.54040800261525346

>  <Cum_SuCOS_Score>  (428) 
2.0950709853985594

>  <TransFSScore_50nM>  (428) 
0.011586000000000001

>  <TransFSScore_1uM>  (428) 
0.2656

>  <TransFSScore_10nM>  (428) 
0.0035490000000000001

>  <TransFSScore_200nM>  (428) 
0.081148999999999999

>  <TransFSScore>  (428) 
0.090470999999999996

>  <FeatureSteinScore>  (428) 
0.33546829567212039

>  <XCos_RefMols>  (428) 
x1392_0

>  <XCos_NumHits>  (428) 
1

>  <XCos_Score1>  (428) 
8.0519

>  <XCos_Score2>  (428) 
0.0000

>  <XCos_Score3>  (428) 
0.0000

$$$$
C#CCC(=O)N1C2CCC1CNC2
     RDKit          3D

 13 14  0  0  0  0  0  0  0  0999 V2000
   11.0483   -2.1265   22.5549 C   0  0  0  0  0  0  0  0  0  0  0  0
    9.9669   -2.6448   22.4313 C   0  0  0  0  0  0  0  0  0  0  0  0
    8.6487   -3.2772   22.2777 C   0  0  0  0  0  0  0  0  0  0  0  0
    8.5082   -4.4234   23.2392 C   0  0  0  0  0  0  0  0  0  0  0  0
    8.0944   -5.5336   22.8081 O   0  0  0  0  0  0  0  0  0  0  0  0
    8.7868   -4.2632   24.6431 N   0  0  0  0  0  0  0  0  0  0  0  0
    9.9164   -3.5542   25.2103 C   0  0  1  0  0  0  0  0  0  0  0  0
    9.4554   -3.2519   26.6428 C   0  0  0  0  0  0  0  0  0  0  0  0
    8.4214   -4.3502   26.9510 C   0  0  0  0  0  0  0  0  0  0  0  0
    8.3724   -5.1954   25.6708 C   0  0  2  0  0  0  0  0  0  0  0  0
    9.4430   -6.3117   25.7151 C   0  0  0  0  0  0  0  0  0  0  0  0
   10.7825   -5.7557   26.0141 N   0  0  0  0  0  0  0  0  0  0  0  0
   11.1038   -4.5470   25.2210 C   0  0  0  0  0  0  0  0  0  0  0  0
  1  2  3  0
  2  3  1  0
  3  4  1  0
  4  5  2  0
  4  6  1  0
  6  7  1  0
  7  8  1  1
  8  9  1  0
 10  9  1  1
 10 11  1  0
 10  6  1  0
 11 12  1  0
 12 13  1  0
 13  7  1  0
M  END
>  <Hit>  (429) 
Mpro-x0991_0

>  <Receptor>  (429) 
Mpro-x0387_0

>  <SCORE>  (429) 
-6.9331399999999999

>  <SCORE.norm>  (429) 
-0.53331899999999999

>  <SCORE.heavy>  (429) 
13

>  <OrigSmiles>  (429) 
C#CCC(=O)N1C2CCC1CNC2

>  <SuCOS_Score>  (429) 
0.51314418703035725

>  <Max_SuCOS_Score>  (429) 
0.51314418703035725

>  <Cum_SuCOS_Score>  (429) 
2.6832159025372873

>  <TransFSScore_50nM>  (429) 
0.014996000000000001

>  <TransFSScore_1uM>  (429) 
0.49984899999999999

>  <TransFSScore_10nM>  (429) 
0.0031020000000000002

>  <TransFSScore_200nM>  (429) 
0.174065

>  <TransFSScore>  (429) 
0.17300300000000002

>  <FeatureSteinScore>  (429) 
0.28841558570491066

>  <XCos_RefMols>  (429) 
x1392_0

>  <XCos_NumHits>  (429) 
1

>  <XCos_Score1>  (429) 
8.1791

>  <XCos_Score2>  (429) 
0.0000

>  <XCos_Score3>  (429) 
0.0000

$$$$
C#CCC(=O)N1[C@H]2CC[C@@H]1CNC2
     RDKit          3D

 13 14  0  0  0  0  0  0  0  0999 V2000
    9.6381   -2.2545   21.8319 C   0  0  0  0  0  0  0  0  0  0  0  0
    8.6886   -2.9557   22.0777 C   0  0  0  0  0  0  0  0  0  0  0  0
    7.5279   -3.8106   22.3795 C   0  0  0  0  0  0  0  0  0  0  0  0
    7.9389   -5.1220   23.0005 C   0  0  0  0  0  0  0  0  0  0  0  0
    7.8564   -6.1912   22.3344 O   0  0  0  0  0  0  0  0  0  0  0  0
    8.4596   -5.1641   24.3421 N   0  0  0  0  0  0  0  0  0  0  0  0
    7.6681   -5.1352   25.5551 C   0  0  1  0  0  0  0  0  0  0  0  0
    8.6300   -5.6862   26.6163 C   0  0  0  0  0  0  0  0  0  0  0  0
   10.0302   -5.3670   26.0635 C   0  0  0  0  0  0  0  0  0  0  0  0
    9.7585   -4.6568   24.7310 C   0  0  2  0  0  0  0  0  0  0  0  0
    9.5996   -3.1306   24.9407 C   0  0  0  0  0  0  0  0  0  0  0  0
    8.5525   -2.8129   25.9441 N   0  0  0  0  0  0  0  0  0  0  0  0
    7.3311   -3.6496   25.8340 C   0  0  0  0  0  0  0  0  0  0  0  0
  1  2  3  0
  2  3  1  0
  3  4  1  0
  4  5  2  0
  4  6  1  0
  6  7  1  0
  7  8  1  1
  8  9  1  0
 10  9  1  1
 10 11  1  0
 10  6  1  0
 11 12  1  0
 12 13  1  0
 13  7  1  0
M  END
>  <Hit>  (430) 
Mpro-x0991_0

>  <Receptor>  (430) 
Mpro-x0874_0

>  <SCORE>  (430) 
-5.3784999999999998

>  <SCORE.norm>  (430) 
-0.41373100000000002

>  <SCORE.heavy>  (430) 
13

>  <OrigSmiles>  (430) 
C#CCC(=O)N1[C@H]2CC[C@@H]1CNC2

>  <SuCOS_Score>  (430) 
0.47282493149312599

>  <Max_SuCOS_Score>  (430) 
0.47282493149312599

>  <Cum_SuCOS_Score>  (430) 
2.2495121476451376

>  <TransFSScore_50nM>  (430) 
0.027154999999999999

>  <TransFSScore_1uM>  (430) 
0.435556

>  <TransFSScore_10nM>  (430) 
0.004006

>  <TransFSScore_200nM>  (430) 
0.14899200000000001

>  <TransFSScore>  (430) 
0.15392725000000002

>  <FeatureSteinScore>  (430) 
0.16796247069972856

>  <XCos_RefMols>  (430) 
x1392_0

>  <XCos_NumHits>  (430) 
1

>  <XCos_Score1>  (430) 
7.9473

>  <XCos_Score2>  (430) 
0.0000

>  <XCos_Score3>  (430) 
0.0000

$$$$
C#CCC(=O)N1[C@H]2CC[C@@H]1CNC2
     RDKit          3D

 13 14  0  0  0  0  0  0  0  0999 V2000
    9.5188   -2.1956   21.6021 C   0  0  0  0  0  0  0  0  0  0  0  0
    8.6139   -2.9022   21.9705 C   0  0  0  0  0  0  0  0  0  0  0  0
    7.5091   -3.7648   22.4227 C   0  0  0  0  0  0  0  0  0  0  0  0
    8.0076   -5.0716   22.9867 C   0  0  0  0  0  0  0  0  0  0  0  0
    8.0212   -6.1080   22.2659 O   0  0  0  0  0  0  0  0  0  0  0  0
    8.5031   -5.1436   24.3365 N   0  0  0  0  0  0  0  0  0  0  0  0
    7.6873   -5.2018   25.5323 C   0  0  1  0  0  0  0  0  0  0  0  0
    8.6534   -5.7493   26.5913 C   0  0  0  0  0  0  0  0  0  0  0  0
   10.0473   -5.3417   26.0822 C   0  0  0  0  0  0  0  0  0  0  0  0
    9.7680   -4.5915   24.7734 C   0  0  2  0  0  0  0  0  0  0  0  0
    9.5314   -3.0843   25.0402 C   0  0  0  0  0  0  0  0  0  0  0  0
    8.4505   -2.8579   26.0324 N   0  0  0  0  0  0  0  0  0  0  0  0
    7.2734   -3.7465   25.8626 C   0  0  0  0  0  0  0  0  0  0  0  0
  1  2  3  0
  2  3  1  0
  3  4  1  0
  4  5  2  0
  4  6  1  0
  6  7  1  0
  7  8  1  1
  8  9  1  0
 10  9  1  1
 10 11  1  0
 10  6  1  0
 11 12  1  0
 12 13  1  0
 13  7  1  0
M  END
>  <Hit>  (431) 
Mpro-x0991_0

>  <Receptor>  (431) 
Mpro-x0874_0

>  <SCORE>  (431) 
-5.4484399999999997

>  <SCORE.norm>  (431) 
-0.41911100000000001

>  <SCORE.heavy>  (431) 
13

>  <OrigSmiles>  (431) 
C#CCC(=O)N1[C@H]2CC[C@@H]1CNC2

>  <SuCOS_Score>  (431) 
0.46925671741280112

>  <Max_SuCOS_Score>  (431) 
0.46925671741280112

>  <Cum_SuCOS_Score>  (431) 
2.1986494893681563

>  <TransFSScore_50nM>  (431) 
0.027948000000000001

>  <TransFSScore_1uM>  (431) 
0.44691700000000001

>  <TransFSScore_10nM>  (431) 
0.0028540000000000002

>  <TransFSScore_200nM>  (431) 
0.14275099999999999

>  <TransFSScore>  (431) 
0.15511749999999999

>  <FeatureSteinScore>  (431) 
0.15682650696748271

>  <XCos_RefMols>  (431) 
x1392_0

>  <XCos_NumHits>  (431) 
1

>  <XCos_Score1>  (431) 
7.8161

>  <XCos_Score2>  (431) 
0.0000

>  <XCos_Score3>  (431) 
0.0000

$$$$
C#CCC(=O)N1[C@H]2CC[C@@H]1CNC2
     RDKit          3D

 13 14  0  0  0  0  0  0  0  0999 V2000
    9.5306   -2.1773   21.7203 C   0  0  0  0  0  0  0  0  0  0  0  0
    8.6315   -2.9361   21.9842 C   0  0  0  0  0  0  0  0  0  0  0  0
    7.5348   -3.8648   22.3064 C   0  0  0  0  0  0  0  0  0  0  0  0
    8.0420   -5.1482   22.9147 C   0  0  0  0  0  0  0  0  0  0  0  0
    8.1054   -6.1980   22.2162 O   0  0  0  0  0  0  0  0  0  0  0  0
    8.4896   -5.1820   24.2826 N   0  0  0  0  0  0  0  0  0  0  0  0
    7.6359   -5.1123   25.4511 C   0  0  1  0  0  0  0  0  0  0  0  0
    8.5248   -5.6709   26.5703 C   0  0  0  0  0  0  0  0  0  0  0  0
    9.9605   -5.3978   26.0884 C   0  0  0  0  0  0  0  0  0  0  0  0
    9.7793   -4.7027   24.7328 C   0  0  2  0  0  0  0  0  0  0  0  0
    9.6510   -3.1696   24.9108 C   0  0  0  0  0  0  0  0  0  0  0  0
    8.5611   -2.8080   25.8519 N   0  0  0  0  0  0  0  0  0  0  0  0
    7.3251   -3.6140   25.6892 C   0  0  0  0  0  0  0  0  0  0  0  0
  1  2  3  0
  2  3  1  0
  3  4  1  0
  4  5  2  0
  4  6  1  0
  6  7  1  0
  7  8  1  1
  8  9  1  0
 10  9  1  1
 10 11  1  0
 10  6  1  0
 11 12  1  0
 12 13  1  0
 13  7  1  0
M  END
>  <Hit>  (432) 
Mpro-x0991_0

>  <Receptor>  (432) 
Mpro-x0874_0

>  <SCORE>  (432) 
-5.5860300000000001

>  <SCORE.norm>  (432) 
-0.42969499999999999

>  <SCORE.heavy>  (432) 
13

>  <OrigSmiles>  (432) 
C#CCC(=O)N1[C@H]2CC[C@@H]1CNC2

>  <SuCOS_Score>  (432) 
0.47097463074618495

>  <Max_SuCOS_Score>  (432) 
0.47097463074618495

>  <Cum_SuCOS_Score>  (432) 
2.2359578047984505

>  <TransFSScore_50nM>  (432) 
0.028487999999999999

>  <TransFSScore_1uM>  (432) 
0.43412400000000001

>  <TransFSScore_10nM>  (432) 
0.0037859999999999999

>  <TransFSScore_200nM>  (432) 
0.13245699999999999

>  <TransFSScore>  (432) 
0.14971375000000001

>  <FeatureSteinScore>  (432) 
0.15722446264056658

>  <XCos_RefMols>  (432) 
x1392_0

>  <XCos_NumHits>  (432) 
1

>  <XCos_Score1>  (432) 
7.7662

>  <XCos_Score2>  (432) 
0.0000

>  <XCos_Score3>  (432) 
0.0000

$$$$
C#CCC(=O)N1[C@H]2CC[C@@H]1CNC2
     RDKit          3D

 13 14  0  0  0  0  0  0  0  0999 V2000
    9.2386   -2.3688   21.7885 C   0  0  0  0  0  0  0  0  0  0  0  0
    8.4143   -3.2056   22.0609 C   0  0  0  0  0  0  0  0  0  0  0  0
    7.4087   -4.2282   22.3958 C   0  0  0  0  0  0  0  0  0  0  0  0
    8.0258   -5.4271   23.0713 C   0  0  0  0  0  0  0  0  0  0  0  0
    8.1756   -6.5059   22.4329 O   0  0  0  0  0  0  0  0  0  0  0  0
    8.4801   -5.3445   24.4349 N   0  0  0  0  0  0  0  0  0  0  0  0
    7.6368   -5.1281   25.5929 C   0  0  1  0  0  0  0  0  0  0  0  0
    8.5105   -5.6088   26.7593 C   0  0  0  0  0  0  0  0  0  0  0  0
    9.9526   -5.4398   26.2497 C   0  0  0  0  0  0  0  0  0  0  0  0
    9.7899   -4.8738   24.8331 C   0  0  2  0  0  0  0  0  0  0  0  0
    9.7214   -3.3268   24.8607 C   0  0  0  0  0  0  0  0  0  0  0  0
    8.6519   -2.8332   25.7644 N   0  0  0  0  0  0  0  0  0  0  0  0
    7.3850   -3.6028   25.6842 C   0  0  0  0  0  0  0  0  0  0  0  0
  1  2  3  0
  2  3  1  0
  3  4  1  0
  4  5  2  0
  4  6  1  0
  6  7  1  0
  7  8  1  1
  8  9  1  0
 10  9  1  1
 10 11  1  0
 10  6  1  0
 11 12  1  0
 12 13  1  0
 13  7  1  0
M  END
>  <Hit>  (433) 
Mpro-x0991_0

>  <Receptor>  (433) 
Mpro-x0874_0

>  <SCORE>  (433) 
-5.8296299999999999

>  <SCORE.norm>  (433) 
-0.44843300000000003

>  <SCORE.heavy>  (433) 
13

>  <OrigSmiles>  (433) 
C#CCC(=O)N1[C@H]2CC[C@@H]1CNC2

>  <SuCOS_Score>  (433) 
0.48054787659731446

>  <Max_SuCOS_Score>  (433) 
0.48054787659731446

>  <Cum_SuCOS_Score>  (433) 
2.1634702079848003

>  <TransFSScore_50nM>  (433) 
0.025895000000000001

>  <TransFSScore_1uM>  (433) 
0.43132100000000001

>  <TransFSScore_10nM>  (433) 
0.0076920000000000001

>  <TransFSScore_200nM>  (433) 
0.09597

>  <TransFSScore>  (433) 
0.1402195

>  <FeatureSteinScore>  (433) 
0.16771470321172385

>  <XCos_RefMols>  (433) 
x1392_0

>  <XCos_NumHits>  (433) 
1

>  <XCos_Score1>  (433) 
7.4305

>  <XCos_Score2>  (433) 
0.0000

>  <XCos_Score3>  (433) 
0.0000

$$$$
C#CCC(=O)N1[C@H]2CC[C@@H]1CNC2
     RDKit          3D

 13 14  0  0  0  0  0  0  0  0999 V2000
   10.4856   -1.8722   22.2742 C   0  0  0  0  0  0  0  0  0  0  0  0
    9.5792   -2.6672   22.2729 C   0  0  0  0  0  0  0  0  0  0  0  0
    8.4702   -3.6365   22.2712 C   0  0  0  0  0  0  0  0  0  0  0  0
    8.4788   -4.5086   23.5014 C   0  0  0  0  0  0  0  0  0  0  0  0
    8.1786   -5.7318   23.4144 O   0  0  0  0  0  0  0  0  0  0  0  0
    8.8654   -3.9657   24.7771 N   0  0  0  0  0  0  0  0  0  0  0  0
   10.2294   -3.7099   25.2042 C   0  0  1  0  0  0  0  0  0  0  0  0
   10.0466   -2.7445   26.3827 C   0  0  0  0  0  0  0  0  0  0  0  0
    8.6466   -3.0621   26.9208 C   0  0  0  0  0  0  0  0  0  0  0  0
    8.1378   -4.1884   26.0123 C   0  0  2  0  0  0  0  0  0  0  0  0
    8.5628   -5.5786   26.5694 C   0  0  0  0  0  0  0  0  0  0  0  0
    9.7959   -6.0871   25.9254 N   0  0  0  0  0  0  0  0  0  0  0  0
   10.8355   -5.0592   25.6880 C   0  0  0  0  0  0  0  0  0  0  0  0
  1  2  3  0
  2  3  1  0
  3  4  1  0
  4  5  2  0
  4  6  1  0
  6  7  1  0
  7  8  1  1
  8  9  1  0
 10  9  1  1
 10 11  1  0
 10  6  1  0
 11 12  1  0
 12 13  1  0
 13  7  1  0
M  END
>  <Hit>  (434) 
Mpro-x0991_0

>  <Receptor>  (434) 
Mpro-x0387_0

>  <SCORE>  (434) 
-5.9326499999999998

>  <SCORE.norm>  (434) 
-0.45635799999999999

>  <SCORE.heavy>  (434) 
13

>  <OrigSmiles>  (434) 
C#CCC(=O)N1[C@H]2CC[C@@H]1CNC2

>  <SuCOS_Score>  (434) 
0.53940603256008768

>  <Max_SuCOS_Score>  (434) 
0.53940603256008768

>  <Cum_SuCOS_Score>  (434) 
2.7953978273942002

>  <TransFSScore_50nM>  (434) 
0.247505

>  <TransFSScore_1uM>  (434) 
0.39543400000000001

>  <TransFSScore_10nM>  (434) 
0.029073999999999999

>  <TransFSScore_200nM>  (434) 
0.45378000000000002

>  <TransFSScore>  (434) 
0.28144825000000001

>  <FeatureSteinScore>  (434) 
0.47846905248867738

>  <XCos_RefMols>  (434) 
x1392_0,x2193_0

>  <XCos_NumHits>  (434) 
2

>  <XCos_Score1>  (434) 
9.9254

>  <XCos_Score2>  (434) 
0.1682

>  <XCos_Score3>  (434) 
0.0169

$$$$
C#CCC(=O)N1[C@H]2CC[C@@H]1CNC2
     RDKit          3D

 13 14  0  0  0  0  0  0  0  0999 V2000
   10.0965   -1.8523   21.6965 C   0  0  0  0  0  0  0  0  0  0  0  0
    9.2394   -2.6718   21.9142 C   0  0  0  0  0  0  0  0  0  0  0  0
    8.1915   -3.6726   22.1778 C   0  0  0  0  0  0  0  0  0  0  0  0
    8.5426   -4.5673   23.3398 C   0  0  0  0  0  0  0  0  0  0  0  0
    8.5510   -5.8215   23.1953 O   0  0  0  0  0  0  0  0  0  0  0  0
    8.9078   -4.0008   24.6115 N   0  0  0  0  0  0  0  0  0  0  0  0
   10.2660   -3.8003   25.0843 C   0  0  1  0  0  0  0  0  0  0  0  0
   10.0889   -2.7865   26.2224 C   0  0  0  0  0  0  0  0  0  0  0  0
    8.6546   -3.0133   26.7140 C   0  0  0  0  0  0  0  0  0  0  0  0
    8.1227   -4.1430   25.8232 C   0  0  2  0  0  0  0  0  0  0  0  0
    8.4526   -5.5329   26.4420 C   0  0  0  0  0  0  0  0  0  0  0  0
    9.6811   -6.1258   25.8651 N   0  0  0  0  0  0  0  0  0  0  0  0
   10.7815   -5.1612   25.6360 C   0  0  0  0  0  0  0  0  0  0  0  0
  1  2  3  0
  2  3  1  0
  3  4  1  0
  4  5  2  0
  4  6  1  0
  6  7  1  0
  7  8  1  1
  8  9  1  0
 10  9  1  1
 10 11  1  0
 10  6  1  0
 11 12  1  0
 12 13  1  0
 13  7  1  0
M  END
>  <Hit>  (435) 
Mpro-x0991_0

>  <Receptor>  (435) 
Mpro-x0387_0

>  <SCORE>  (435) 
-6.63626

>  <SCORE.norm>  (435) 
-0.51048099999999996

>  <SCORE.heavy>  (435) 
13

>  <OrigSmiles>  (435) 
C#CCC(=O)N1[C@H]2CC[C@@H]1CNC2

>  <SuCOS_Score>  (435) 
0.53375698348857303

>  <Max_SuCOS_Score>  (435) 
0.53375698348857303

>  <Cum_SuCOS_Score>  (435) 
2.6293542195201995

>  <TransFSScore_50nM>  (435) 
0.20773

>  <TransFSScore_1uM>  (435) 
0.38845499999999999

>  <TransFSScore_10nM>  (435) 
0.020545999999999998

>  <TransFSScore_200nM>  (435) 
0.39351999999999998

>  <TransFSScore>  (435) 
0.25256274999999995

>  <FeatureSteinScore>  (435) 
0.45519918826161637

>  <XCos_RefMols>  (435) 
x1392_0,x2193_0

>  <XCos_NumHits>  (435) 
2

>  <XCos_Score1>  (435) 
10.0191

>  <XCos_Score2>  (435) 
0.1698

>  <XCos_Score3>  (435) 
0.0169

$$$$
C#CCC(=O)N1[C@H]2CC[C@@H]1CNC2
     RDKit          3D

 13 14  0  0  0  0  0  0  0  0999 V2000
    9.7418   -2.2815   22.3373 C   0  0  0  0  0  0  0  0  0  0  0  0
    9.0242   -3.2081   22.6208 C   0  0  0  0  0  0  0  0  0  0  0  0
    8.1459   -4.3385   22.9670 C   0  0  0  0  0  0  0  0  0  0  0  0
    8.5650   -5.0060   24.2528 C   0  0  0  0  0  0  0  0  0  0  0  0
    9.2522   -6.0646   24.2218 O   0  0  0  0  0  0  0  0  0  0  0  0
    8.2165   -4.4272   25.5241 N   0  0  0  0  0  0  0  0  0  0  0  0
    9.1542   -3.9194   26.5048 C   0  0  1  0  0  0  0  0  0  0  0  0
    8.2855   -3.0111   27.3852 C   0  0  0  0  0  0  0  0  0  0  0  0
    6.8642   -3.5815   27.2351 C   0  0  0  0  0  0  0  0  0  0  0  0
    7.0327   -4.7723   26.2825 C   0  0  2  0  0  0  0  0  0  0  0  0
    7.3642   -6.0654   27.0678 C   0  0  0  0  0  0  0  0  0  0  0  0
    8.5557   -5.8982   27.9375 N   0  0  0  0  0  0  0  0  0  0  0  0
    9.6663   -5.1404   27.3081 C   0  0  0  0  0  0  0  0  0  0  0  0
  1  2  3  0
  2  3  1  0
  3  4  1  0
  4  5  2  0
  4  6  1  0
  6  7  1  0
  7  8  1  1
  8  9  1  0
 10  9  1  1
 10 11  1  0
 10  6  1  0
 11 12  1  0
 12 13  1  0
 13  7  1  0
M  END
>  <Hit>  (436) 
Mpro-x0991_0

>  <Receptor>  (436) 
Mpro-x0305_0

>  <SCORE>  (436) 
-6.9461599999999999

>  <SCORE.norm>  (436) 
-0.53432000000000002

>  <SCORE.heavy>  (436) 
13

>  <OrigSmiles>  (436) 
C#CCC(=O)N1[C@H]2CC[C@@H]1CNC2

>  <SuCOS_Score>  (436) 
0.53109700393545189

>  <Max_SuCOS_Score>  (436) 
0.53109700393545189

>  <Cum_SuCOS_Score>  (436) 
2.1411371734025035

>  <TransFSScore_50nM>  (436) 
0.012602

>  <TransFSScore_1uM>  (436) 
0.28792000000000001

>  <TransFSScore_10nM>  (436) 
0.0043309999999999998

>  <TransFSScore_200nM>  (436) 
0.093723000000000001

>  <TransFSScore>  (436) 
0.099643999999999996

>  <FeatureSteinScore>  (436) 
0.33874394156685145

>  <XCos_RefMols>  (436) 
x1392_0

>  <XCos_NumHits>  (436) 
1

>  <XCos_Score1>  (436) 
8.1282

>  <XCos_Score2>  (436) 
0.0000

>  <XCos_Score3>  (436) 
0.0000

$$$$
C#CCC(=O)N1[C@H]2CC[C@@H]1CNC2
     RDKit          3D

 13 14  0  0  0  0  0  0  0  0999 V2000
    9.6726   -2.2776   22.3202 C   0  0  0  0  0  0  0  0  0  0  0  0
    8.9764   -3.2149   22.6211 C   0  0  0  0  0  0  0  0  0  0  0  0
    8.1272   -4.3612   22.9872 C   0  0  0  0  0  0  0  0  0  0  0  0
    8.5725   -5.0049   24.2763 C   0  0  0  0  0  0  0  0  0  0  0  0
    9.3027   -6.0344   24.2504 O   0  0  0  0  0  0  0  0  0  0  0  0
    8.1998   -4.4350   25.5447 N   0  0  0  0  0  0  0  0  0  0  0  0
    9.1181   -3.9235   26.5418 C   0  0  1  0  0  0  0  0  0  0  0  0
    8.2282   -3.0269   27.4129 C   0  0  0  0  0  0  0  0  0  0  0  0
    6.8145   -3.6091   27.2388 C   0  0  0  0  0  0  0  0  0  0  0  0
    7.0078   -4.7939   26.2836 C   0  0  2  0  0  0  0  0  0  0  0  0
    7.3388   -6.0877   27.0680 C   0  0  0  0  0  0  0  0  0  0  0  0
    8.5156   -5.9140   27.9564 N   0  0  0  0  0  0  0  0  0  0  0  0
    9.6288   -5.1436   27.3473 C   0  0  0  0  0  0  0  0  0  0  0  0
  1  2  3  0
  2  3  1  0
  3  4  1  0
  4  5  2  0
  4  6  1  0
  6  7  1  0
  7  8  1  1
  8  9  1  0
 10  9  1  1
 10 11  1  0
 10  6  1  0
 11 12  1  0
 12 13  1  0
 13  7  1  0
M  END
>  <Hit>  (437) 
Mpro-x0991_0

>  <Receptor>  (437) 
Mpro-x0305_0

>  <SCORE>  (437) 
-6.9533399999999999

>  <SCORE.norm>  (437) 
-0.53487300000000004

>  <SCORE.heavy>  (437) 
13

>  <OrigSmiles>  (437) 
C#CCC(=O)N1[C@H]2CC[C@@H]1CNC2

>  <SuCOS_Score>  (437) 
0.53817069450406985

>  <Max_SuCOS_Score>  (437) 
0.53817069450406985

>  <Cum_SuCOS_Score>  (437) 
2.1261439020169162

>  <TransFSScore_50nM>  (437) 
0.012406

>  <TransFSScore_1uM>  (437) 
0.27705800000000003

>  <TransFSScore_10nM>  (437) 
0.0041289999999999999

>  <TransFSScore_200nM>  (437) 
0.092530000000000001

>  <TransFSScore>  (437) 
0.096530750000000012

>  <FeatureSteinScore>  (437) 
0.3415086726402336

>  <XCos_RefMols>  (437) 
x1392_0

>  <XCos_NumHits>  (437) 
1

>  <XCos_Score1>  (437) 
8.1294

>  <XCos_Score2>  (437) 
0.0000

>  <XCos_Score3>  (437) 
0.0000

$$$$
C#CCC(=O)N1[C@H]2CC[C@@H]1CNC2
     RDKit          3D

 13 14  0  0  0  0  0  0  0  0999 V2000
    9.7581   -2.3055   22.3257 C   0  0  0  0  0  0  0  0  0  0  0  0
    9.0272   -3.2172   22.6231 C   0  0  0  0  0  0  0  0  0  0  0  0
    8.1331   -4.3304   22.9843 C   0  0  0  0  0  0  0  0  0  0  0  0
    8.5483   -4.9921   24.2744 C   0  0  0  0  0  0  0  0  0  0  0  0
    9.2595   -6.0350   24.2506 O   0  0  0  0  0  0  0  0  0  0  0  0
    8.1686   -4.4250   25.5420 N   0  0  0  0  0  0  0  0  0  0  0  0
    9.0795   -3.8875   26.5321 C   0  0  1  0  0  0  0  0  0  0  0  0
    8.1731   -3.0077   27.4034 C   0  0  0  0  0  0  0  0  0  0  0  0
    6.7725   -3.6236   27.2391 C   0  0  0  0  0  0  0  0  0  0  0  0
    6.9888   -4.8081   26.2884 C   0  0  2  0  0  0  0  0  0  0  0  0
    7.3538   -6.0901   27.0772 C   0  0  0  0  0  0  0  0  0  0  0  0
    8.5304   -5.8848   27.9590 N   0  0  0  0  0  0  0  0  0  0  0  0
    9.6224   -5.0915   27.3407 C   0  0  0  0  0  0  0  0  0  0  0  0
  1  2  3  0
  2  3  1  0
  3  4  1  0
  4  5  2  0
  4  6  1  0
  6  7  1  0
  7  8  1  1
  8  9  1  0
 10  9  1  1
 10 11  1  0
 10  6  1  0
 11 12  1  0
 12 13  1  0
 13  7  1  0
M  END
>  <Hit>  (438) 
Mpro-x0991_0

>  <Receptor>  (438) 
Mpro-x0305_0

>  <SCORE>  (438) 
-6.9538000000000002

>  <SCORE.norm>  (438) 
-0.53490800000000005

>  <SCORE.heavy>  (438) 
13

>  <OrigSmiles>  (438) 
C#CCC(=O)N1[C@H]2CC[C@@H]1CNC2

>  <SuCOS_Score>  (438) 
0.53271497833351145

>  <Max_SuCOS_Score>  (438) 
0.53271497833351145

>  <Cum_SuCOS_Score>  (438) 
2.1269903331077269

>  <TransFSScore_50nM>  (438) 
0.012097999999999999

>  <TransFSScore_1uM>  (438) 
0.27350799999999997

>  <TransFSScore_10nM>  (438) 
0.0045209999999999998

>  <TransFSScore_200nM>  (438) 
0.086330000000000004

>  <TransFSScore>  (438) 
0.094114249999999997

>  <FeatureSteinScore>  (438) 
0.34131972597090776

>  <XCos_RefMols>  (438) 
x1392_0

>  <XCos_NumHits>  (438) 
1

>  <XCos_Score1>  (438) 
8.1761

>  <XCos_Score2>  (438) 
0.0000

>  <XCos_Score3>  (438) 
0.0000

$$$$
C#CCC(=O)N1[C@H]2CC[C@@H]1CNC2
     RDKit          3D

 13 14  0  0  0  0  0  0  0  0999 V2000
    9.1072   -2.5021   22.0262 C   0  0  0  0  0  0  0  0  0  0  0  0
    8.5763   -3.4951   22.4575 C   0  0  0  0  0  0  0  0  0  0  0  0
    7.9287   -4.7092   22.9826 C   0  0  0  0  0  0  0  0  0  0  0  0
    8.5453   -5.1605   24.2828 C   0  0  0  0  0  0  0  0  0  0  0  0
    9.4156   -6.0751   24.2868 O   0  0  0  0  0  0  0  0  0  0  0  0
    8.1749   -4.5327   25.5243 N   0  0  0  0  0  0  0  0  0  0  0  0
    9.0943   -3.9652   26.4895 C   0  0  1  0  0  0  0  0  0  0  0  0
    8.2015   -3.0348   27.3214 C   0  0  0  0  0  0  0  0  0  0  0  0
    6.7920   -3.6371   27.1847 C   0  0  0  0  0  0  0  0  0  0  0  0
    6.9904   -4.8654   26.2872 C   0  0  2  0  0  0  0  0  0  0  0  0
    7.3376   -6.1165   27.1317 C   0  0  0  0  0  0  0  0  0  0  0  0
    8.5179   -5.8894   28.0032 N   0  0  0  0  0  0  0  0  0  0  0  0
    9.6206   -5.1401   27.3503 C   0  0  0  0  0  0  0  0  0  0  0  0
  1  2  3  0
  2  3  1  0
  3  4  1  0
  4  5  2  0
  4  6  1  0
  6  7  1  0
  7  8  1  1
  8  9  1  0
 10  9  1  1
 10 11  1  0
 10  6  1  0
 11 12  1  0
 12 13  1  0
 13  7  1  0
M  END
>  <Hit>  (439) 
Mpro-x0991_0

>  <Receptor>  (439) 
Mpro-x0305_0

>  <SCORE>  (439) 
-6.9542299999999999

>  <SCORE.norm>  (439) 
-0.534941

>  <SCORE.heavy>  (439) 
13

>  <OrigSmiles>  (439) 
C#CCC(=O)N1[C@H]2CC[C@@H]1CNC2

>  <SuCOS_Score>  (439) 
0.53988772312533051

>  <Max_SuCOS_Score>  (439) 
0.53988772312533051

>  <Cum_SuCOS_Score>  (439) 
1.9259508457653571

>  <TransFSScore_50nM>  (439) 
0.0087410000000000005

>  <TransFSScore_1uM>  (439) 
0.268092

>  <TransFSScore_10nM>  (439) 
0.0028860000000000001

>  <TransFSScore_200nM>  (439) 
0.052299999999999999

>  <TransFSScore>  (439) 
0.083004750000000002

>  <FeatureSteinScore>  (439) 
0.28562978228523145

>  <XCos_RefMols>  (439) 
x1392_0

>  <XCos_NumHits>  (439) 
1

>  <XCos_Score1>  (439) 
7.4931

>  <XCos_Score2>  (439) 
0.0000

>  <XCos_Score3>  (439) 
0.0000

$$$$
C#CCC(=O)NCc1cc(Cl)cc(Br)c1
     RDKit          3D

 15 15  0  0  0  0  0  0  0  0999 V2000
    7.3981    4.6748   21.8222 C   0  0  0  0  0  0  0  0  0  0  0  0
    7.9496    5.6489   22.2702 C   0  0  0  0  0  0  0  0  0  0  0  0
    8.6216    6.8306   22.8170 C   0  0  0  0  0  0  0  0  0  0  0  0
    9.9014    6.4219   23.4740 C   0  0  0  0  0  0  0  0  0  0  0  0
   10.0675    6.6444   24.7041 O   0  0  0  0  0  0  0  0  0  0  0  0
   10.9115    5.7403   22.7173 N   0  0  0  0  0  0  0  0  0  0  0  0
   12.1070    5.1745   23.3374 C   0  0  0  0  0  0  0  0  0  0  0  0
   11.8915    3.7172   23.6441 C   0  0  0  0  0  0  0  0  0  0  0  0
   10.7866    3.3038   24.4055 C   0  0  0  0  0  0  0  0  0  0  0  0
   10.5825    1.9426   24.6620 C   0  0  0  0  0  0  0  0  0  0  0  0
    9.2027    1.4290   25.6153 Cl  0  0  0  0  0  0  0  0  0  0  0  0
   11.4734    0.9890   24.1520 C   0  0  0  0  0  0  0  0  0  0  0  0
   12.5704    1.3968   23.3835 C   0  0  0  0  0  0  0  0  0  0  0  0
   13.7780    0.1040   22.6413 Br  0  0  0  0  0  0  0  0  0  0  0  0
   12.7799    2.7567   23.1348 C   0  0  0  0  0  0  0  0  0  0  0  0
  1  2  3  0
  2  3  1  0
  3  4  1  0
  4  5  2  0
  4  6  1  0
  6  7  1  0
  7  8  1  0
  8  9  2  0
  9 10  1  0
 10 11  1  0
 10 12  2  0
 12 13  1  0
 13 14  1  0
 13 15  2  0
 15  8  1  0
M  END
>  <Hit>  (440) 
Mpro-x0946_0

>  <Receptor>  (440) 
Mpro-x1249_0

>  <SCORE>  (440) 
-11.2659

>  <SCORE.norm>  (440) 
-0.751058

>  <SCORE.heavy>  (440) 
15

>  <OrigSmiles>  (440) 
C#CCC(=O)NCc1cc(Cl)cc(Br)c1

>  <SuCOS_Score>  (440) 
0.61251240650840644

>  <Max_SuCOS_Score>  (440) 
0.61251240650840644

>  <Cum_SuCOS_Score>  (440) 
3.5071712348323221

>  <TransFSScore_50nM>  (440) 
0.0044920000000000003

>  <TransFSScore_1uM>  (440) 
0.026502999999999999

>  <TransFSScore_10nM>  (440) 
0.0013179999999999999

>  <TransFSScore_200nM>  (440) 
0.003947

>  <TransFSScore>  (440) 
0.0090650000000000001

>  <FeatureSteinScore>  (440) 
0.54500601177608177

>  <XCos_RefMols>  (440) 
x0104_0,x0161_0

>  <XCos_NumHits>  (440) 
2

>  <XCos_Score1>  (440) 
14.5017

>  <XCos_Score2>  (440) 
0.3277

>  <XCos_Score3>  (440) 
0.0226

$$$$
C#CCC(=O)NCc1cc(Cl)cc(Br)c1
     RDKit          3D

 15 15  0  0  0  0  0  0  0  0999 V2000
    7.3908    4.7251   21.8821 C   0  0  0  0  0  0  0  0  0  0  0  0
    7.9433    5.6652   22.3967 C   0  0  0  0  0  0  0  0  0  0  0  0
    8.6116    6.8086   23.0237 C   0  0  0  0  0  0  0  0  0  0  0  0
    9.9264    6.3744   23.5885 C   0  0  0  0  0  0  0  0  0  0  0  0
   10.1489    6.5112   24.8222 O   0  0  0  0  0  0  0  0  0  0  0  0
   10.9074    5.7646   22.7378 N   0  0  0  0  0  0  0  0  0  0  0  0
   12.1382    5.1751   23.2585 C   0  0  0  0  0  0  0  0  0  0  0  0
   11.9153    3.7266   23.5997 C   0  0  0  0  0  0  0  0  0  0  0  0
   10.8199    3.3394   24.3882 C   0  0  0  0  0  0  0  0  0  0  0  0
   10.6083    1.9858   24.6769 C   0  0  0  0  0  0  0  0  0  0  0  0
    9.2404    1.5051   25.6639 Cl  0  0  0  0  0  0  0  0  0  0  0  0
   11.4820    1.0137   24.1724 C   0  0  0  0  0  0  0  0  0  0  0  0
   12.5693    1.3951   23.3770 C   0  0  0  0  0  0  0  0  0  0  0  0
   13.7527    0.0759   22.6423 Br  0  0  0  0  0  0  0  0  0  0  0  0
   12.7865    2.7475   23.0960 C   0  0  0  0  0  0  0  0  0  0  0  0
  1  2  3  0
  2  3  1  0
  3  4  1  0
  4  5  2  0
  4  6  1  0
  6  7  1  0
  7  8  1  0
  8  9  2  0
  9 10  1  0
 10 11  1  0
 10 12  2  0
 12 13  1  0
 13 14  1  0
 13 15  2  0
 15  8  1  0
M  END
>  <Hit>  (441) 
Mpro-x0946_0

>  <Receptor>  (441) 
Mpro-x1249_0

>  <SCORE>  (441) 
-11.266

>  <SCORE.norm>  (441) 
-0.75106499999999998

>  <SCORE.heavy>  (441) 
15

>  <OrigSmiles>  (441) 
C#CCC(=O)NCc1cc(Cl)cc(Br)c1

>  <SuCOS_Score>  (441) 
0.62174381827034697

>  <Max_SuCOS_Score>  (441) 
0.62174381827034697

>  <Cum_SuCOS_Score>  (441) 
3.5216949055066533

>  <TransFSScore_50nM>  (441) 
0.0048089999999999999

>  <TransFSScore_1uM>  (441) 
0.026572999999999999

>  <TransFSScore_10nM>  (441) 
0.001526

>  <TransFSScore_200nM>  (441) 
0.0041419999999999998

>  <TransFSScore>  (441) 
0.0092624999999999999

>  <FeatureSteinScore>  (441) 
0.56031800320612846

>  <XCos_RefMols>  (441) 
x0104_0,x0161_0

>  <XCos_NumHits>  (441) 
2

>  <XCos_Score1>  (441) 
14.5776

>  <XCos_Score2>  (441) 
0.4118

>  <XCos_Score3>  (441) 
0.0282

$$$$
C#CCC(=O)NCc1cc(Cl)cc(Br)c1
     RDKit          3D

 15 15  0  0  0  0  0  0  0  0999 V2000
    7.4428    4.6386   21.8732 C   0  0  0  0  0  0  0  0  0  0  0  0
    8.0076    5.5998   22.3323 C   0  0  0  0  0  0  0  0  0  0  0  0
    8.6968    6.7675   22.8878 C   0  0  0  0  0  0  0  0  0  0  0  0
    9.9724    6.3359   23.5381 C   0  0  0  0  0  0  0  0  0  0  0  0
   10.1298    6.5128   24.7767 O   0  0  0  0  0  0  0  0  0  0  0  0
   10.9885    5.6835   22.7637 N   0  0  0  0  0  0  0  0  0  0  0  0
   12.1802    5.0962   23.3708 C   0  0  0  0  0  0  0  0  0  0  0  0
   11.9580    3.6321   23.6377 C   0  0  0  0  0  0  0  0  0  0  0  0
   10.8300    3.2002   24.3536 C   0  0  0  0  0  0  0  0  0  0  0  0
   10.6206    1.8333   24.5729 C   0  0  0  0  0  0  0  0  0  0  0  0
    9.2118    1.2966   25.4694 Cl  0  0  0  0  0  0  0  0  0  0  0  0
   11.5294    0.8926   24.0708 C   0  0  0  0  0  0  0  0  0  0  0  0
   12.6498    1.3190   23.3473 C   0  0  0  0  0  0  0  0  0  0  0  0
   13.8834    0.0447   22.6158 Br  0  0  0  0  0  0  0  0  0  0  0  0
   12.8644    2.6844   23.1360 C   0  0  0  0  0  0  0  0  0  0  0  0
  1  2  3  0
  2  3  1  0
  3  4  1  0
  4  5  2  0
  4  6  1  0
  6  7  1  0
  7  8  1  0
  8  9  2  0
  9 10  1  0
 10 11  1  0
 10 12  2  0
 12 13  1  0
 13 14  1  0
 13 15  2  0
 15  8  1  0
M  END
>  <Hit>  (442) 
Mpro-x0946_0

>  <Receptor>  (442) 
Mpro-x1249_0

>  <SCORE>  (442) 
-11.276999999999999

>  <SCORE.norm>  (442) 
-0.75179700000000005

>  <SCORE.heavy>  (442) 
15

>  <OrigSmiles>  (442) 
C#CCC(=O)NCc1cc(Cl)cc(Br)c1

>  <SuCOS_Score>  (442) 
0.63559870560347953

>  <Max_SuCOS_Score>  (442) 
0.63559870560347953

>  <Cum_SuCOS_Score>  (442) 
3.6366365922290096

>  <TransFSScore_50nM>  (442) 
0.0049719999999999999

>  <TransFSScore_1uM>  (442) 
0.027654999999999999

>  <TransFSScore_10nM>  (442) 
0.0016119999999999999

>  <TransFSScore_200nM>  (442) 
0.0044929999999999996

>  <TransFSScore>  (442) 
0.0096829999999999989

>  <FeatureSteinScore>  (442) 
0.59249900313180093

>  <XCos_RefMols>  (442) 
x0104_0,x0161_0

>  <XCos_NumHits>  (442) 
2

>  <XCos_Score1>  (442) 
14.8360

>  <XCos_Score2>  (442) 
0.4191

>  <XCos_Score3>  (442) 
0.0282

$$$$
C#CCC(=O)NCc1cc(Cl)cc(Br)c1
     RDKit          3D

 15 15  0  0  0  0  0  0  0  0999 V2000
    7.1199    4.5494   21.9115 C   0  0  0  0  0  0  0  0  0  0  0  0
    7.6811    5.5575   22.2615 C   0  0  0  0  0  0  0  0  0  0  0  0
    8.3599    6.7839   22.6882 C   0  0  0  0  0  0  0  0  0  0  0  0
    9.6306    6.4351   23.3953 C   0  0  0  0  0  0  0  0  0  0  0  0
    9.7338    6.6537   24.6329 O   0  0  0  0  0  0  0  0  0  0  0  0
   10.7052    5.8136   22.6765 N   0  0  0  0  0  0  0  0  0  0  0  0
   11.9015    5.3038   23.3420 C   0  0  0  0  0  0  0  0  0  0  0  0
   11.7265    3.8477   23.6789 C   0  0  0  0  0  0  0  0  0  0  0  0
   10.6180    3.4159   24.4247 C   0  0  0  0  0  0  0  0  0  0  0  0
   10.4525    2.0551   24.7094 C   0  0  0  0  0  0  0  0  0  0  0  0
    9.0681    1.5185   25.6432 Cl  0  0  0  0  0  0  0  0  0  0  0  0
   11.3857    1.1199   24.2431 C   0  0  0  0  0  0  0  0  0  0  0  0
   12.4867    1.5457   23.4901 C   0  0  0  0  0  0  0  0  0  0  0  0
   13.7529    0.2765   22.8072 Br  0  0  0  0  0  0  0  0  0  0  0  0
   12.6575    2.9055   23.2134 C   0  0  0  0  0  0  0  0  0  0  0  0
  1  2  3  0
  2  3  1  0
  3  4  1  0
  4  5  2  0
  4  6  1  0
  6  7  1  0
  7  8  1  0
  8  9  2  0
  9 10  1  0
 10 11  1  0
 10 12  2  0
 12 13  1  0
 13 14  1  0
 13 15  2  0
 15  8  1  0
M  END
>  <Hit>  (443) 
Mpro-x0946_0

>  <Receptor>  (443) 
Mpro-x1249_0

>  <SCORE>  (443) 
-11.325699999999999

>  <SCORE.norm>  (443) 
-0.75504499999999997

>  <SCORE.heavy>  (443) 
15

>  <OrigSmiles>  (443) 
C#CCC(=O)NCc1cc(Cl)cc(Br)c1

>  <SuCOS_Score>  (443) 
0.58003665051678988

>  <Max_SuCOS_Score>  (443) 
0.58003665051678988

>  <Cum_SuCOS_Score>  (443) 
3.2831492437216059

>  <TransFSScore_50nM>  (443) 
0.0026879999999999999

>  <TransFSScore_1uM>  (443) 
0.029034000000000001

>  <TransFSScore_10nM>  (443) 
0.001039

>  <TransFSScore_200nM>  (443) 
0.0040959999999999998

>  <TransFSScore>  (443) 
0.0092142500000000002

>  <FeatureSteinScore>  (443) 
0.45039892246097746

>  <XCos_RefMols>  (443) 
x0104_0,x0161_0

>  <XCos_NumHits>  (443) 
2

>  <XCos_Score1>  (443) 
13.6794

>  <XCos_Score2>  (443) 
0.3091

>  <XCos_Score3>  (443) 
0.0226

$$$$
C#CCC(=O)NCc1cc(Cl)cc(Br)c1
     RDKit          3D

 15 15  0  0  0  0  0  0  0  0999 V2000
    7.3800    4.5626   21.8465 C   0  0  0  0  0  0  0  0  0  0  0  0
    7.9469    5.5442   22.2573 C   0  0  0  0  0  0  0  0  0  0  0  0
    8.6337    6.7372   22.7594 C   0  0  0  0  0  0  0  0  0  0  0  0
    9.9139    6.3389   23.4217 C   0  0  0  0  0  0  0  0  0  0  0  0
   10.0687    6.5523   24.6548 O   0  0  0  0  0  0  0  0  0  0  0  0
   10.9379    5.6769   22.6660 N   0  0  0  0  0  0  0  0  0  0  0  0
   12.1360    5.1207   23.2894 C   0  0  0  0  0  0  0  0  0  0  0  0
   11.9316    3.6616   23.5952 C   0  0  0  0  0  0  0  0  0  0  0  0
   10.8245    3.2384   24.3481 C   0  0  0  0  0  0  0  0  0  0  0  0
   10.6309    1.8755   24.6036 C   0  0  0  0  0  0  0  0  0  0  0  0
    9.2483    1.3497   25.5463 Cl  0  0  0  0  0  0  0  0  0  0  0  0
   11.5345    0.9299   24.1012 C   0  0  0  0  0  0  0  0  0  0  0  0
   12.6338    1.3474   23.3411 C   0  0  0  0  0  0  0  0  0  0  0  0
   13.8590    0.0653   22.6092 Br  0  0  0  0  0  0  0  0  0  0  0  0
   12.8327    2.7090   23.0934 C   0  0  0  0  0  0  0  0  0  0  0  0
  1  2  3  0
  2  3  1  0
  3  4  1  0
  4  5  2  0
  4  6  1  0
  6  7  1  0
  7  8  1  0
  8  9  2  0
  9 10  1  0
 10 11  1  0
 10 12  2  0
 12 13  1  0
 13 14  1  0
 13 15  2  0
 15  8  1  0
M  END
>  <Hit>  (444) 
Mpro-x0946_0

>  <Receptor>  (444) 
Mpro-x1249_0

>  <SCORE>  (444) 
-11.3285

>  <SCORE.norm>  (444) 
-0.75523399999999996

>  <SCORE.heavy>  (444) 
15

>  <OrigSmiles>  (444) 
C#CCC(=O)NCc1cc(Cl)cc(Br)c1

>  <SuCOS_Score>  (444) 
0.62796979473537928

>  <Max_SuCOS_Score>  (444) 
0.62796979473537928

>  <Cum_SuCOS_Score>  (444) 
3.5827090785155096

>  <TransFSScore_50nM>  (444) 
0.0046010000000000001

>  <TransFSScore_1uM>  (444) 
0.028531999999999998

>  <TransFSScore_10nM>  (444) 
0.0015139999999999999

>  <TransFSScore_200nM>  (444) 
0.0047219999999999996

>  <TransFSScore>  (444) 
0.0098422499999999986

>  <FeatureSteinScore>  (444) 
0.57627993314333281

>  <XCos_RefMols>  (444) 
x0104_0,x0161_0

>  <XCos_NumHits>  (444) 
2

>  <XCos_Score1>  (444) 
14.8052

>  <XCos_Score2>  (444) 
0.4182

>  <XCos_Score3>  (444) 
0.0282

$$$$
C#CCC(=O)NCc1cc(Cl)cc(Br)c1
     RDKit          3D

 15 15  0  0  0  0  0  0  0  0999 V2000
    7.5958    4.5653   21.9578 C   0  0  0  0  0  0  0  0  0  0  0  0
    8.2173    5.4886   22.4215 C   0  0  0  0  0  0  0  0  0  0  0  0
    8.9696    6.6129   22.9846 C   0  0  0  0  0  0  0  0  0  0  0  0
   10.2629    6.1191   23.5503 C   0  0  0  0  0  0  0  0  0  0  0  0
   10.4832    6.2297   24.7871 O   0  0  0  0  0  0  0  0  0  0  0  0
   11.2240    5.4827   22.6965 N   0  0  0  0  0  0  0  0  0  0  0  0
   12.4274    4.8375   23.2155 C   0  0  0  0  0  0  0  0  0  0  0  0
   12.1655    3.3772   23.4663 C   0  0  0  0  0  0  0  0  0  0  0  0
   11.0578    2.9711   24.2275 C   0  0  0  0  0  0  0  0  0  0  0  0
   10.8100    1.6083   24.4319 C   0  0  0  0  0  0  0  0  0  0  0  0
    9.4267    1.1038   25.3851 Cl  0  0  0  0  0  0  0  0  0  0  0  0
   11.6595    0.6464   23.8698 C   0  0  0  0  0  0  0  0  0  0  0  0
   12.7591    1.0474   23.1013 C   0  0  0  0  0  0  0  0  0  0  0  0
   13.9100   -0.2546   22.2886 Br  0  0  0  0  0  0  0  0  0  0  0  0
   13.0124    2.4084   22.9046 C   0  0  0  0  0  0  0  0  0  0  0  0
  1  2  3  0
  2  3  1  0
  3  4  1  0
  4  5  2  0
  4  6  1  0
  6  7  1  0
  7  8  1  0
  8  9  2  0
  9 10  1  0
 10 11  1  0
 10 12  2  0
 12 13  1  0
 13 14  1  0
 13 15  2  0
 15  8  1  0
M  END
>  <Hit>  (445) 
Mpro-x0946_0

>  <Receptor>  (445) 
Mpro-x0874_0

>  <SCORE>  (445) 
-11.9284

>  <SCORE.norm>  (445) 
-0.79522999999999999

>  <SCORE.heavy>  (445) 
15

>  <OrigSmiles>  (445) 
C#CCC(=O)NCc1cc(Cl)cc(Br)c1

>  <SuCOS_Score>  (445) 
0.67123549826208073

>  <Max_SuCOS_Score>  (445) 
0.67123549826208073

>  <Cum_SuCOS_Score>  (445) 
3.9471478982684363

>  <TransFSScore_50nM>  (445) 
0.0041089999999999998

>  <TransFSScore_1uM>  (445) 
0.032974000000000003

>  <TransFSScore_10nM>  (445) 
0.0025839999999999999

>  <TransFSScore_200nM>  (445) 
0.0038920000000000001

>  <TransFSScore>  (445) 
0.010889750000000002

>  <FeatureSteinScore>  (445) 
0.66952459523395269

>  <XCos_RefMols>  (445) 
x0104_0,x0195_0

>  <XCos_NumHits>  (445) 
2

>  <XCos_Score1>  (445) 
15.6315

>  <XCos_Score2>  (445) 
0.5299

>  <XCos_Score3>  (445) 
0.0339

$$$$
C#CCC(=O)NCc1cc(Cl)cc(Br)c1
     RDKit          3D

 15 15  0  0  0  0  0  0  0  0999 V2000
    7.6491    4.4952   21.9978 C   0  0  0  0  0  0  0  0  0  0  0  0
    8.2771    5.4332   22.4214 C   0  0  0  0  0  0  0  0  0  0  0  0
    9.0383    6.5732   22.9392 C   0  0  0  0  0  0  0  0  0  0  0  0
   10.3322    6.0935   23.5154 C   0  0  0  0  0  0  0  0  0  0  0  0
   10.5499    6.2258   24.7504 O   0  0  0  0  0  0  0  0  0  0  0  0
   11.2969    5.4460   22.6741 N   0  0  0  0  0  0  0  0  0  0  0  0
   12.5016    4.8138   23.2060 C   0  0  0  0  0  0  0  0  0  0  0  0
   12.2550    3.3492   23.4475 C   0  0  0  0  0  0  0  0  0  0  0  0
   11.1767    2.9285   24.2424 C   0  0  0  0  0  0  0  0  0  0  0  0
   10.9420    1.5622   24.4382 C   0  0  0  0  0  0  0  0  0  0  0  0
    9.5957    1.0394   25.4335 Cl  0  0  0  0  0  0  0  0  0  0  0  0
   11.7751    0.6113   23.8342 C   0  0  0  0  0  0  0  0  0  0  0  0
   12.8450    1.0270   23.0323 C   0  0  0  0  0  0  0  0  0  0  0  0
   13.9717   -0.2594   22.1628 Br  0  0  0  0  0  0  0  0  0  0  0  0
   13.0855    2.3915   22.8439 C   0  0  0  0  0  0  0  0  0  0  0  0
  1  2  3  0
  2  3  1  0
  3  4  1  0
  4  5  2  0
  4  6  1  0
  6  7  1  0
  7  8  1  0
  8  9  2  0
  9 10  1  0
 10 11  1  0
 10 12  2  0
 12 13  1  0
 13 14  1  0
 13 15  2  0
 15  8  1  0
M  END
>  <Hit>  (446) 
Mpro-x0946_0

>  <Receptor>  (446) 
Mpro-x0874_0

>  <SCORE>  (446) 
-11.990500000000001

>  <SCORE.norm>  (446) 
-0.799369

>  <SCORE.heavy>  (446) 
15

>  <OrigSmiles>  (446) 
C#CCC(=O)NCc1cc(Cl)cc(Br)c1

>  <SuCOS_Score>  (446) 
0.66423440660939126

>  <Max_SuCOS_Score>  (446) 
0.66423440660939126

>  <Cum_SuCOS_Score>  (446) 
3.9163999230330937

>  <TransFSScore_50nM>  (446) 
0.0043660000000000001

>  <TransFSScore_1uM>  (446) 
0.037096999999999998

>  <TransFSScore_10nM>  (446) 
0.002274

>  <TransFSScore_200nM>  (446) 
0.0039319999999999997

>  <TransFSScore>  (446) 
0.011917249999999999

>  <FeatureSteinScore>  (446) 
0.65661146462417053

>  <XCos_RefMols>  (446) 
x0104_0,x0195_0

>  <XCos_NumHits>  (446) 
2

>  <XCos_Score1>  (446) 
15.7145

>  <XCos_Score2>  (446) 
0.6215

>  <XCos_Score3>  (446) 
0.0395

$$$$
C#CCC(=O)NCc1cc(Cl)cc(Br)c1
     RDKit          3D

 15 15  0  0  0  0  0  0  0  0999 V2000
    7.5137    4.6436   21.7766 C   0  0  0  0  0  0  0  0  0  0  0  0
    8.0610    5.5981   22.2695 C   0  0  0  0  0  0  0  0  0  0  0  0
    8.7293    6.7571   22.8673 C   0  0  0  0  0  0  0  0  0  0  0  0
   10.0358    6.3338   23.4591 C   0  0  0  0  0  0  0  0  0  0  0  0
   10.2468    6.5093   24.6899 O   0  0  0  0  0  0  0  0  0  0  0  0
   11.0213    5.6909   22.6387 N   0  0  0  0  0  0  0  0  0  0  0  0
   12.2433    5.1114   23.1907 C   0  0  0  0  0  0  0  0  0  0  0  0
   12.0351    3.6516   23.4906 C   0  0  0  0  0  0  0  0  0  0  0  0
   10.9173    3.2264   24.2262 C   0  0  0  0  0  0  0  0  0  0  0  0
   10.7207    1.8629   24.4763 C   0  0  0  0  0  0  0  0  0  0  0  0
    9.3246    1.3345   25.3973 Cl  0  0  0  0  0  0  0  0  0  0  0  0
   11.6321    0.9188   23.9855 C   0  0  0  0  0  0  0  0  0  0  0  0
   12.7423    1.3383   23.2425 C   0  0  0  0  0  0  0  0  0  0  0  0
   13.9789    0.0583   22.5264 Br  0  0  0  0  0  0  0  0  0  0  0  0
   12.9442    2.7005   23.0004 C   0  0  0  0  0  0  0  0  0  0  0  0
  1  2  3  0
  2  3  1  0
  3  4  1  0
  4  5  2  0
  4  6  1  0
  6  7  1  0
  7  8  1  0
  8  9  2  0
  9 10  1  0
 10 11  1  0
 10 12  2  0
 12 13  1  0
 13 14  1  0
 13 15  2  0
 15  8  1  0
M  END
>  <Hit>  (447) 
Mpro-x0946_0

>  <Receptor>  (447) 
Mpro-x0874_0

>  <SCORE>  (447) 
-12.0381

>  <SCORE.norm>  (447) 
-0.802539

>  <SCORE.heavy>  (447) 
15

>  <OrigSmiles>  (447) 
C#CCC(=O)NCc1cc(Cl)cc(Br)c1

>  <SuCOS_Score>  (447) 
0.64384087226693887

>  <Max_SuCOS_Score>  (447) 
0.64384087226693887

>  <Cum_SuCOS_Score>  (447) 
3.6219013226216088

>  <TransFSScore_50nM>  (447) 
0.0058609999999999999

>  <TransFSScore_1uM>  (447) 
0.031192000000000001

>  <TransFSScore_10nM>  (447) 
0.0013320000000000001

>  <TransFSScore_200nM>  (447) 
0.0050140000000000002

>  <TransFSScore>  (447) 
0.01084975

>  <FeatureSteinScore>  (447) 
0.60640053530926508

>  <XCos_RefMols>  (447) 
x0104_0,x0161_0

>  <XCos_NumHits>  (447) 
2

>  <XCos_Score1>  (447) 
14.9249

>  <XCos_Score2>  (447) 
0.4216

>  <XCos_Score3>  (447) 
0.0282

$$$$
C#CCC(=O)NCc1cc(Cl)cc(Br)c1
     RDKit          3D

 15 15  0  0  0  0  0  0  0  0999 V2000
    7.4625    4.5892   21.8704 C   0  0  0  0  0  0  0  0  0  0  0  0
    8.0302    5.5436   22.3402 C   0  0  0  0  0  0  0  0  0  0  0  0
    8.7183    6.7056   22.9086 C   0  0  0  0  0  0  0  0  0  0  0  0
   10.0315    6.2803   23.4840 C   0  0  0  0  0  0  0  0  0  0  0  0
   10.2484    6.4317   24.7170 O   0  0  0  0  0  0  0  0  0  0  0  0
   11.0170    5.6622   22.6447 N   0  0  0  0  0  0  0  0  0  0  0  0
   12.2466    5.0808   23.1774 C   0  0  0  0  0  0  0  0  0  0  0  0
   12.0311    3.6297   23.5124 C   0  0  0  0  0  0  0  0  0  0  0  0
   10.9031    3.2262   24.2449 C   0  0  0  0  0  0  0  0  0  0  0  0
   10.7001    1.8701   24.5277 C   0  0  0  0  0  0  0  0  0  0  0  0
    9.2914    1.3689   25.4448 Cl  0  0  0  0  0  0  0  0  0  0  0  0
   11.6151    0.9115   24.0729 C   0  0  0  0  0  0  0  0  0  0  0  0
   12.7354    1.3092   23.3332 C   0  0  0  0  0  0  0  0  0  0  0  0
   13.9775    0.0083   22.6658 Br  0  0  0  0  0  0  0  0  0  0  0  0
   12.9437    2.6642   23.0583 C   0  0  0  0  0  0  0  0  0  0  0  0
  1  2  3  0
  2  3  1  0
  3  4  1  0
  4  5  2  0
  4  6  1  0
  6  7  1  0
  7  8  1  0
  8  9  2  0
  9 10  1  0
 10 11  1  0
 10 12  2  0
 12 13  1  0
 13 14  1  0
 13 15  2  0
 15  8  1  0
M  END
>  <Hit>  (448) 
Mpro-x0946_0

>  <Receptor>  (448) 
Mpro-x0874_0

>  <SCORE>  (448) 
-12.045500000000001

>  <SCORE.norm>  (448) 
-0.80303500000000005

>  <SCORE.heavy>  (448) 
15

>  <OrigSmiles>  (448) 
C#CCC(=O)NCc1cc(Cl)cc(Br)c1

>  <SuCOS_Score>  (448) 
0.64274846606732006

>  <Max_SuCOS_Score>  (448) 
0.64274846606732006

>  <Cum_SuCOS_Score>  (448) 
3.634797060003514

>  <TransFSScore_50nM>  (448) 
0.0049490000000000003

>  <TransFSScore_1uM>  (448) 
0.032060999999999999

>  <TransFSScore_10nM>  (448) 
0.0015709999999999999

>  <TransFSScore_200nM>  (448) 
0.0049480000000000001

>  <TransFSScore>  (448) 
0.010882250000000001

>  <FeatureSteinScore>  (448) 
0.60856304371626568

>  <XCos_RefMols>  (448) 
x0104_0,x0161_0

>  <XCos_NumHits>  (448) 
2

>  <XCos_Score1>  (448) 
15.1341

>  <XCos_Score2>  (448) 
0.4275

>  <XCos_Score3>  (448) 
0.0282

$$$$
C#CCC(=O)NCc1cc(Cl)cc(Br)c1
     RDKit          3D

 15 15  0  0  0  0  0  0  0  0999 V2000
    7.4675    4.4185   21.9420 C   0  0  0  0  0  0  0  0  0  0  0  0
    8.0626    5.3986   22.3147 C   0  0  0  0  0  0  0  0  0  0  0  0
    8.7835    6.5919   22.7659 C   0  0  0  0  0  0  0  0  0  0  0  0
   10.0758    6.1882   23.4009 C   0  0  0  0  0  0  0  0  0  0  0  0
   10.2440    6.3684   24.6377 O   0  0  0  0  0  0  0  0  0  0  0  0
   11.0967    5.5583   22.6143 N   0  0  0  0  0  0  0  0  0  0  0  0
   12.3081    4.9971   23.2070 C   0  0  0  0  0  0  0  0  0  0  0  0
   12.1155    3.5319   23.4909 C   0  0  0  0  0  0  0  0  0  0  0  0
   11.0256    3.0908   24.2583 C   0  0  0  0  0  0  0  0  0  0  0  0
   10.8425    1.7228   24.4935 C   0  0  0  0  0  0  0  0  0  0  0  0
    9.4814    1.1746   25.4544 Cl  0  0  0  0  0  0  0  0  0  0  0  0
   11.7394    0.7901   23.9562 C   0  0  0  0  0  0  0  0  0  0  0  0
   12.8214    1.2256   23.1815 C   0  0  0  0  0  0  0  0  0  0  0  0
   14.0364   -0.0381   22.4023 Br  0  0  0  0  0  0  0  0  0  0  0  0
   13.0100    2.5923   22.9541 C   0  0  0  0  0  0  0  0  0  0  0  0
  1  2  3  0
  2  3  1  0
  3  4  1  0
  4  5  2  0
  4  6  1  0
  6  7  1  0
  7  8  1  0
  8  9  2  0
  9 10  1  0
 10 11  1  0
 10 12  2  0
 12 13  1  0
 13 14  1  0
 13 15  2  0
 15  8  1  0
M  END
>  <Hit>  (449) 
Mpro-x0946_0

>  <Receptor>  (449) 
Mpro-x0874_0

>  <SCORE>  (449) 
-12.057600000000001

>  <SCORE.norm>  (449) 
-0.80383700000000002

>  <SCORE.heavy>  (449) 
15

>  <OrigSmiles>  (449) 
C#CCC(=O)NCc1cc(Cl)cc(Br)c1

>  <SuCOS_Score>  (449) 
0.65677442287988019

>  <Max_SuCOS_Score>  (449) 
0.65677442287988019

>  <Cum_SuCOS_Score>  (449) 
3.7310871079614896

>  <TransFSScore_50nM>  (449) 
0.0041549999999999998

>  <TransFSScore_1uM>  (449) 
0.032204000000000003

>  <TransFSScore_10nM>  (449) 
0.001771

>  <TransFSScore_200nM>  (449) 
0.0051770000000000002

>  <TransFSScore>  (449) 
0.010826750000000001

>  <FeatureSteinScore>  (449) 
0.63667816145449352

>  <XCos_RefMols>  (449) 
x0104_0,x0195_0

>  <XCos_NumHits>  (449) 
2

>  <XCos_Score1>  (449) 
15.4243

>  <XCos_Score2>  (449) 
0.4357

>  <XCos_Score3>  (449) 
0.0282

$$$$
C#CCC(=O)Nc1cc(Cl)cc(Br)c1
     RDKit          3D

 14 14  0  0  0  0  0  0  0  0999 V2000
   10.9679    7.4861   25.6050 C   0  0  0  0  0  0  0  0  0  0  0  0
   11.7829    6.7963   25.0450 C   0  0  0  0  0  0  0  0  0  0  0  0
   12.7733    5.9584   24.3640 C   0  0  0  0  0  0  0  0  0  0  0  0
   12.0962    4.7766   23.7442 C   0  0  0  0  0  0  0  0  0  0  0  0
   10.9001    4.8812   23.3590 O   0  0  0  0  0  0  0  0  0  0  0  0
   12.8123    3.5413   23.5851 N   0  0  0  0  0  0  0  0  0  0  0  0
   12.1981    2.2945   23.2168 C   0  0  0  0  0  0  0  0  0  0  0  0
   10.8003    2.1374   23.2208 C   0  0  0  0  0  0  0  0  0  0  0  0
   10.2320    0.9019   22.8879 C   0  0  0  0  0  0  0  0  0  0  0  0
    8.4884    0.7088   22.8993 Cl  0  0  0  0  0  0  0  0  0  0  0  0
   11.0522   -0.1831   22.5537 C   0  0  0  0  0  0  0  0  0  0  0  0
   12.4440   -0.0342   22.5559 C   0  0  0  0  0  0  0  0  0  0  0  0
   13.5839   -1.4991   22.0705 Br  0  0  0  0  0  0  0  0  0  0  0  0
   13.0122    1.1967   22.8985 C   0  0  0  0  0  0  0  0  0  0  0  0
  1  2  3  0
  2  3  1  0
  3  4  1  0
  4  5  2  0
  4  6  1  0
  6  7  1  0
  7  8  2  0
  8  9  1  0
  9 10  1  0
  9 11  2  0
 11 12  1  0
 12 13  1  0
 12 14  2  0
 14  7  1  0
M  END
>  <Hit>  (450) 
Mpro-x0946_0

>  <Receptor>  (450) 
Mpro-x0305_0

>  <SCORE>  (450) 
-10.5907

>  <SCORE.norm>  (450) 
-0.75648099999999996

>  <SCORE.heavy>  (450) 
14

>  <OrigSmiles>  (450) 
C#CCC(=O)Nc1cc(Cl)cc(Br)c1

>  <SuCOS_Score>  (450) 
0.40418608351329305

>  <Max_SuCOS_Score>  (450) 
0.40418608351329305

>  <Cum_SuCOS_Score>  (450) 
3.8369089962192935

>  <TransFSScore_50nM>  (450) 
0.010267999999999999

>  <TransFSScore_1uM>  (450) 
0.054686999999999999

>  <TransFSScore_10nM>  (450) 
0.0067600000000000004

>  <TransFSScore_200nM>  (450) 
0.0093849999999999992

>  <TransFSScore>  (450) 
0.020275000000000001

>  <FeatureSteinScore>  (450) 
0.2182863130597669

>  <XCos_RefMols>  (450) 
x0104_0,x0946_0

>  <XCos_NumHits>  (450) 
2

>  <XCos_Score1>  (450) 
9.2071

>  <XCos_Score2>  (450) 
0.1040

>  <XCos_Score3>  (450) 
0.0113

$$$$
C#CCC(=O)Nc1cc(Cl)cc(Br)c1
     RDKit          3D

 14 14  0  0  0  0  0  0  0  0999 V2000
   12.0896    6.7634   26.4650 C   0  0  0  0  0  0  0  0  0  0  0  0
   12.4242    6.3639   25.3778 C   0  0  0  0  0  0  0  0  0  0  0  0
   12.8307    5.8790   24.0562 C   0  0  0  0  0  0  0  0  0  0  0  0
   12.1673    4.5682   23.7718 C   0  0  0  0  0  0  0  0  0  0  0  0
   10.9140    4.5256   23.6393 O   0  0  0  0  0  0  0  0  0  0  0  0
   12.9590    3.3763   23.6437 N   0  0  0  0  0  0  0  0  0  0  0  0
   12.4137    2.0466   23.5983 C   0  0  0  0  0  0  0  0  0  0  0  0
   11.2797    1.6941   24.3520 C   0  0  0  0  0  0  0  0  0  0  0  0
   10.7902    0.3829   24.3119 C   0  0  0  0  0  0  0  0  0  0  0  0
    9.3787   -0.0538   25.2576 Cl  0  0  0  0  0  0  0  0  0  0  0  0
   11.4294   -0.5835   23.5251 C   0  0  0  0  0  0  0  0  0  0  0  0
   12.5630   -0.2398   22.7794 C   0  0  0  0  0  0  0  0  0  0  0  0
   13.4344   -1.5407   21.6708 Br  0  0  0  0  0  0  0  0  0  0  0  0
   13.0583    1.0670   22.8274 C   0  0  0  0  0  0  0  0  0  0  0  0
  1  2  3  0
  2  3  1  0
  3  4  1  0
  4  5  2  0
  4  6  1  0
  6  7  1  0
  7  8  2  0
  8  9  1  0
  9 10  1  0
  9 11  2  0
 11 12  1  0
 12 13  1  0
 12 14  2  0
 14  7  1  0
M  END
>  <Hit>  (451) 
Mpro-x0946_0

>  <Receptor>  (451) 
Mpro-x1249_0

>  <SCORE>  (451) 
-11.1472

>  <SCORE.norm>  (451) 
-0.79622800000000005

>  <SCORE.heavy>  (451) 
14

>  <OrigSmiles>  (451) 
C#CCC(=O)Nc1cc(Cl)cc(Br)c1

>  <SuCOS_Score>  (451) 
0.38032967743541912

>  <Max_SuCOS_Score>  (451) 
0.40805724903898538

>  <Cum_SuCOS_Score>  (451) 
4.076944406797737

>  <TransFSScore_50nM>  (451) 
0.0063610000000000003

>  <TransFSScore_1uM>  (451) 
0.060116000000000003

>  <TransFSScore_10nM>  (451) 
0.0061380000000000002

>  <TransFSScore_200nM>  (451) 
0.002467

>  <TransFSScore>  (451) 
0.018770500000000002

>  <FeatureSteinScore>  (451) 
0.28370919520288684

>  <XCos_RefMols>  (451) 
x1249_0

>  <XCos_NumHits>  (451) 
1

>  <XCos_Score1>  (451) 
9.6765

>  <XCos_Score2>  (451) 
0.1640

>  <XCos_Score3>  (451) 
0.0169

$$$$
C#CCC(=O)Nc1cc(Cl)cc(Br)c1
     RDKit          3D

 14 14  0  0  0  0  0  0  0  0999 V2000
   12.0707    6.7596   26.5303 C   0  0  0  0  0  0  0  0  0  0  0  0
   12.4106    6.3725   25.4402 C   0  0  0  0  0  0  0  0  0  0  0  0
   12.8231    5.9021   24.1153 C   0  0  0  0  0  0  0  0  0  0  0  0
   12.1568    4.5972   23.8114 C   0  0  0  0  0  0  0  0  0  0  0  0
   10.9033    4.5591   23.6796 O   0  0  0  0  0  0  0  0  0  0  0  0
   12.9460    3.4058   23.6639 N   0  0  0  0  0  0  0  0  0  0  0  0
   12.3980    2.0781   23.5984 C   0  0  0  0  0  0  0  0  0  0  0  0
   11.2353    1.7299   24.3094 C   0  0  0  0  0  0  0  0  0  0  0  0
   10.7430    0.4205   24.2514 C   0  0  0  0  0  0  0  0  0  0  0  0
    9.2955   -0.0108   25.1438 Cl  0  0  0  0  0  0  0  0  0  0  0  0
   11.4076   -0.5485   23.4893 C   0  0  0  0  0  0  0  0  0  0  0  0
   12.5695   -0.2092   22.7863 C   0  0  0  0  0  0  0  0  0  0  0  0
   13.4770   -1.5136   21.7114 Br  0  0  0  0  0  0  0  0  0  0  0  0
   13.0674    1.0959   22.8524 C   0  0  0  0  0  0  0  0  0  0  0  0
  1  2  3  0
  2  3  1  0
  3  4  1  0
  4  5  2  0
  4  6  1  0
  6  7  1  0
  7  8  2  0
  8  9  1  0
  9 10  1  0
  9 11  2  0
 11 12  1  0
 12 13  1  0
 12 14  2  0
 14  7  1  0
M  END
>  <Hit>  (452) 
Mpro-x0946_0

>  <Receptor>  (452) 
Mpro-x1249_0

>  <SCORE>  (452) 
-11.1746

>  <SCORE.norm>  (452) 
-0.79818900000000004

>  <SCORE.heavy>  (452) 
14

>  <OrigSmiles>  (452) 
C#CCC(=O)Nc1cc(Cl)cc(Br)c1

>  <SuCOS_Score>  (452) 
0.38489680961783118

>  <Max_SuCOS_Score>  (452) 
0.40873817235550153

>  <Cum_SuCOS_Score>  (452) 
4.0808157740309792

>  <TransFSScore_50nM>  (452) 
0.0064559999999999999

>  <TransFSScore_1uM>  (452) 
0.060950999999999998

>  <TransFSScore_10nM>  (452) 
0.0057029999999999997

>  <TransFSScore_200nM>  (452) 
0.002336

>  <TransFSScore>  (452) 
0.0188615

>  <FeatureSteinScore>  (452) 
0.2869116015772169

>  <XCos_RefMols>  (452) 
x1249_0

>  <XCos_NumHits>  (452) 
1

>  <XCos_Score1>  (452) 
9.6181

>  <XCos_Score2>  (452) 
0.1630

>  <XCos_Score3>  (452) 
0.0169

$$$$
C#CCC(=O)Nc1cc(Cl)cc(Br)c1
     RDKit          3D

 14 14  0  0  0  0  0  0  0  0999 V2000
   12.0971    6.7488   26.4616 C   0  0  0  0  0  0  0  0  0  0  0  0
   12.4350    6.3565   25.3728 C   0  0  0  0  0  0  0  0  0  0  0  0
   12.8455    5.8802   24.0494 C   0  0  0  0  0  0  0  0  0  0  0  0
   12.1844    4.5705   23.7551 C   0  0  0  0  0  0  0  0  0  0  0  0
   10.9330    4.5296   23.6051 O   0  0  0  0  0  0  0  0  0  0  0  0
   12.9762    3.3775   23.6374 N   0  0  0  0  0  0  0  0  0  0  0  0
   12.4297    2.0486   23.5838 C   0  0  0  0  0  0  0  0  0  0  0  0
   11.2911    1.6944   24.3298 C   0  0  0  0  0  0  0  0  0  0  0  0
   10.8005    0.3839   24.2818 C   0  0  0  0  0  0  0  0  0  0  0  0
    9.3831   -0.0549   25.2178 Cl  0  0  0  0  0  0  0  0  0  0  0  0
   11.4431   -0.5801   23.4949 C   0  0  0  0  0  0  0  0  0  0  0  0
   12.5812   -0.2347   22.7569 C   0  0  0  0  0  0  0  0  0  0  0  0
   13.4575   -1.5323   21.6483 Br  0  0  0  0  0  0  0  0  0  0  0  0
   13.0776    1.0713   22.8128 C   0  0  0  0  0  0  0  0  0  0  0  0
  1  2  3  0
  2  3  1  0
  3  4  1  0
  4  5  2  0
  4  6  1  0
  6  7  1  0
  7  8  2  0
  8  9  1  0
  9 10  1  0
  9 11  2  0
 11 12  1  0
 12 13  1  0
 12 14  2  0
 14  7  1  0
M  END
>  <Hit>  (453) 
Mpro-x0946_0

>  <Receptor>  (453) 
Mpro-x1249_0

>  <SCORE>  (453) 
-11.1873

>  <SCORE.norm>  (453) 
-0.79909300000000005

>  <SCORE.heavy>  (453) 
14

>  <OrigSmiles>  (453) 
C#CCC(=O)Nc1cc(Cl)cc(Br)c1

>  <SuCOS_Score>  (453) 
0.38018932699162988

>  <Max_SuCOS_Score>  (453) 
0.40663238897715692

>  <Cum_SuCOS_Score>  (453) 
4.0775246165634718

>  <TransFSScore_50nM>  (453) 
0.0066100000000000004

>  <TransFSScore_1uM>  (453) 
0.061978999999999999

>  <TransFSScore_10nM>  (453) 
0.0059719999999999999

>  <TransFSScore_200nM>  (453) 
0.0024819999999999998

>  <TransFSScore>  (453) 
0.01926075

>  <FeatureSteinScore>  (453) 
0.28489213205025971

>  <XCos_RefMols>  (453) 
x1249_0

>  <XCos_NumHits>  (453) 
1

>  <XCos_Score1>  (453) 
9.6881

>  <XCos_Score2>  (453) 
0.1642

>  <XCos_Score3>  (453) 
0.0169

$$$$
C#CCC(=O)Nc1cc(Cl)cc(Br)c1
     RDKit          3D

 14 14  0  0  0  0  0  0  0  0999 V2000
   12.0365    6.7379   26.5556 C   0  0  0  0  0  0  0  0  0  0  0  0
   12.3845    6.3517   25.4678 C   0  0  0  0  0  0  0  0  0  0  0  0
   12.8069    5.8825   24.1455 C   0  0  0  0  0  0  0  0  0  0  0  0
   12.1507    4.5730   23.8397 C   0  0  0  0  0  0  0  0  0  0  0  0
   10.8956    4.5214   23.7289 O   0  0  0  0  0  0  0  0  0  0  0  0
   12.9511    3.3925   23.6666 N   0  0  0  0  0  0  0  0  0  0  0  0
   12.4175    2.0591   23.5969 C   0  0  0  0  0  0  0  0  0  0  0  0
   11.2532    1.6987   24.2991 C   0  0  0  0  0  0  0  0  0  0  0  0
   10.7751    0.3842   24.2373 C   0  0  0  0  0  0  0  0  0  0  0  0
    9.3256   -0.0624   25.1188 Cl  0  0  0  0  0  0  0  0  0  0  0  0
   11.4556   -0.5776   23.4801 C   0  0  0  0  0  0  0  0  0  0  0  0
   12.6191   -0.2261   22.7860 C   0  0  0  0  0  0  0  0  0  0  0  0
   13.5483   -1.5208   21.7178 Br  0  0  0  0  0  0  0  0  0  0  0  0
   13.1028    1.0841   22.8559 C   0  0  0  0  0  0  0  0  0  0  0  0
  1  2  3  0
  2  3  1  0
  3  4  1  0
  4  5  2  0
  4  6  1  0
  6  7  1  0
  7  8  2  0
  8  9  1  0
  9 10  1  0
  9 11  2  0
 11 12  1  0
 12 13  1  0
 12 14  2  0
 14  7  1  0
M  END
>  <Hit>  (454) 
Mpro-x0946_0

>  <Receptor>  (454) 
Mpro-x1249_0

>  <SCORE>  (454) 
-11.217499999999999

>  <SCORE.norm>  (454) 
-0.80124899999999999

>  <SCORE.heavy>  (454) 
14

>  <OrigSmiles>  (454) 
C#CCC(=O)Nc1cc(Cl)cc(Br)c1

>  <SuCOS_Score>  (454) 
0.38439988178931411

>  <Max_SuCOS_Score>  (454) 
0.40428763202055717

>  <Cum_SuCOS_Score>  (454) 
4.0871902639567983

>  <TransFSScore_50nM>  (454) 
0.0059410000000000001

>  <TransFSScore_1uM>  (454) 
0.060898000000000001

>  <TransFSScore_10nM>  (454) 
0.0059080000000000001

>  <TransFSScore_200nM>  (454) 
0.0022569999999999999

>  <TransFSScore>  (454) 
0.018750999999999997

>  <FeatureSteinScore>  (454) 
0.28640049985794236

>  <XCos_RefMols>  (454) 
x1249_0

>  <XCos_NumHits>  (454) 
1

>  <XCos_Score1>  (454) 
9.5972

>  <XCos_Score2>  (454) 
0.1627

>  <XCos_Score3>  (454) 
0.0169

$$$$
C#CCC(=O)Nc1cc(Cl)cc(Br)c1
     RDKit          3D

 14 14  0  0  0  0  0  0  0  0999 V2000
   12.0846    6.7853   26.4984 C   0  0  0  0  0  0  0  0  0  0  0  0
   12.4245    6.3861   25.4127 C   0  0  0  0  0  0  0  0  0  0  0  0
   12.8377    5.9015   24.0931 C   0  0  0  0  0  0  0  0  0  0  0  0
   12.1651    4.5975   23.7993 C   0  0  0  0  0  0  0  0  0  0  0  0
   10.9115    4.5644   23.6675 O   0  0  0  0  0  0  0  0  0  0  0  0
   12.9486    3.4012   23.6612 N   0  0  0  0  0  0  0  0  0  0  0  0
   12.3942    2.0757   23.6061 C   0  0  0  0  0  0  0  0  0  0  0  0
   11.2255    1.7407   24.3135 C   0  0  0  0  0  0  0  0  0  0  0  0
   10.7268    0.4333   24.2659 C   0  0  0  0  0  0  0  0  0  0  0  0
    9.2718    0.0185   25.1539 Cl  0  0  0  0  0  0  0  0  0  0  0  0
   11.3911   -0.5468   23.5178 C   0  0  0  0  0  0  0  0  0  0  0  0
   12.5589   -0.2206   22.8184 C   0  0  0  0  0  0  0  0  0  0  0  0
   13.4662   -1.5406   21.7624 Br  0  0  0  0  0  0  0  0  0  0  0  0
   13.0630    1.0825   22.8742 C   0  0  0  0  0  0  0  0  0  0  0  0
  1  2  3  0
  2  3  1  0
  3  4  1  0
  4  5  2  0
  4  6  1  0
  6  7  1  0
  7  8  2  0
  8  9  1  0
  9 10  1  0
  9 11  2  0
 11 12  1  0
 12 13  1  0
 12 14  2  0
 14  7  1  0
M  END
>  <Hit>  (455) 
Mpro-x0946_0

>  <Receptor>  (455) 
Mpro-x1249_0

>  <SCORE>  (455) 
-11.2273

>  <SCORE.norm>  (455) 
-0.80194799999999999

>  <SCORE.heavy>  (455) 
14

>  <OrigSmiles>  (455) 
C#CCC(=O)Nc1cc(Cl)cc(Br)c1

>  <SuCOS_Score>  (455) 
0.3850803812290694

>  <Max_SuCOS_Score>  (455) 
0.40837330178804931

>  <Cum_SuCOS_Score>  (455) 
4.0789022401357196

>  <TransFSScore_50nM>  (455) 
0.0065750000000000001

>  <TransFSScore_1uM>  (455) 
0.059709999999999999

>  <TransFSScore_10nM>  (455) 
0.0054250000000000001

>  <TransFSScore_200nM>  (455) 
0.0023779999999999999

>  <TransFSScore>  (455) 
0.018522

>  <FeatureSteinScore>  (455) 
0.28535320776425049

>  <XCos_RefMols>  (455) 
x1249_0

>  <XCos_NumHits>  (455) 
1

>  <XCos_Score1>  (455) 
9.5902

>  <XCos_Score2>  (455) 
0.1625

>  <XCos_Score3>  (455) 
0.0169

$$$$
C#CCC(=O)Nc1cc(Cl)cc(Br)c1
     RDKit          3D

 14 14  0  0  0  0  0  0  0  0999 V2000
   12.5089    6.7870   26.4708 C   0  0  0  0  0  0  0  0  0  0  0  0
   12.6550    6.5100   25.3065 C   0  0  0  0  0  0  0  0  0  0  0  0
   12.8323    6.1739   23.8914 C   0  0  0  0  0  0  0  0  0  0  0  0
   12.2347    4.8310   23.6113 C   0  0  0  0  0  0  0  0  0  0  0  0
   10.9990    4.7410   23.3768 O   0  0  0  0  0  0  0  0  0  0  0  0
   13.0696    3.6618   23.6027 N   0  0  0  0  0  0  0  0  0  0  0  0
   12.5700    2.3140   23.5711 C   0  0  0  0  0  0  0  0  0  0  0  0
   11.4356    1.9360   24.3119 C   0  0  0  0  0  0  0  0  0  0  0  0
   10.9910    0.6085   24.2863 C   0  0  0  0  0  0  0  0  0  0  0  0
    9.5788    0.1402   25.2158 Cl  0  0  0  0  0  0  0  0  0  0  0  0
   11.6756   -0.3487   23.5270 C   0  0  0  0  0  0  0  0  0  0  0  0
   12.8097    0.0206   22.7944 C   0  0  0  0  0  0  0  0  0  0  0  0
   13.7431   -1.2685   21.7231 Br  0  0  0  0  0  0  0  0  0  0  0  0
   13.2601    1.3440   22.8281 C   0  0  0  0  0  0  0  0  0  0  0  0
  1  2  3  0
  2  3  1  0
  3  4  1  0
  4  5  2  0
  4  6  1  0
  6  7  1  0
  7  8  2  0
  8  9  1  0
  9 10  1  0
  9 11  2  0
 11 12  1  0
 12 13  1  0
 12 14  2  0
 14  7  1  0
M  END
>  <Hit>  (456) 
Mpro-x0946_0

>  <Receptor>  (456) 
Mpro-x0874_0

>  <SCORE>  (456) 
-12.2319

>  <SCORE.norm>  (456) 
-0.87370700000000001

>  <SCORE.heavy>  (456) 
14

>  <OrigSmiles>  (456) 
C#CCC(=O)Nc1cc(Cl)cc(Br)c1

>  <SuCOS_Score>  (456) 
0.41640126208498429

>  <Max_SuCOS_Score>  (456) 
0.41640126208498429

>  <Cum_SuCOS_Score>  (456) 
3.8416979266994198

>  <TransFSScore_50nM>  (456) 
0.003882

>  <TransFSScore_1uM>  (456) 
0.037505999999999998

>  <TransFSScore_10nM>  (456) 
0.0059179999999999996

>  <TransFSScore_200nM>  (456) 
0.0027690000000000002

>  <TransFSScore>  (456) 
0.012518749999999999

>  <FeatureSteinScore>  (456) 
0.28268474851249231

>  <XCos_RefMols>  (456) 
x0104_0

>  <XCos_NumHits>  (456) 
1

>  <XCos_Score1>  (456) 
8.9528

>  <XCos_Score2>  (456) 
0.1012

>  <XCos_Score3>  (456) 
0.0113

$$$$
C#CCC(=O)Nc1cc(Cl)cc(Br)c1
     RDKit          3D

 14 14  0  0  0  0  0  0  0  0999 V2000
   12.4881    6.7216   26.5280 C   0  0  0  0  0  0  0  0  0  0  0  0
   12.6272    6.4708   25.3570 C   0  0  0  0  0  0  0  0  0  0  0  0
   12.7960    6.1655   23.9339 C   0  0  0  0  0  0  0  0  0  0  0  0
   12.2066    4.8239   23.6306 C   0  0  0  0  0  0  0  0  0  0  0  0
   10.9737    4.7322   23.3827 O   0  0  0  0  0  0  0  0  0  0  0  0
   13.0463    3.6582   23.6154 N   0  0  0  0  0  0  0  0  0  0  0  0
   12.5523    2.3090   23.5615 C   0  0  0  0  0  0  0  0  0  0  0  0
   11.4083    1.9187   24.2808 C   0  0  0  0  0  0  0  0  0  0  0  0
   10.9693    0.5900   24.2340 C   0  0  0  0  0  0  0  0  0  0  0  0
    9.5450    0.1064   25.1368 Cl  0  0  0  0  0  0  0  0  0  0  0  0
   11.6690   -0.3563   23.4749 C   0  0  0  0  0  0  0  0  0  0  0  0
   12.8127    0.0251   22.7636 C   0  0  0  0  0  0  0  0  0  0  0  0
   13.7672   -1.2487   21.6926 Br  0  0  0  0  0  0  0  0  0  0  0  0
   13.2574    1.3497   22.8186 C   0  0  0  0  0  0  0  0  0  0  0  0
  1  2  3  0
  2  3  1  0
  3  4  1  0
  4  5  2  0
  4  6  1  0
  6  7  1  0
  7  8  2  0
  8  9  1  0
  9 10  1  0
  9 11  2  0
 11 12  1  0
 12 13  1  0
 12 14  2  0
 14  7  1  0
M  END
>  <Hit>  (457) 
Mpro-x0946_0

>  <Receptor>  (457) 
Mpro-x0874_0

>  <SCORE>  (457) 
-12.251200000000001

>  <SCORE.norm>  (457) 
-0.87508300000000006

>  <SCORE.heavy>  (457) 
14

>  <OrigSmiles>  (457) 
C#CCC(=O)Nc1cc(Cl)cc(Br)c1

>  <SuCOS_Score>  (457) 
0.41580746472521057

>  <Max_SuCOS_Score>  (457) 
0.41580746472521057

>  <Cum_SuCOS_Score>  (457) 
3.8645963359822852

>  <TransFSScore_50nM>  (457) 
0.004084

>  <TransFSScore_1uM>  (457) 
0.039379999999999998

>  <TransFSScore_10nM>  (457) 
0.0057330000000000002

>  <TransFSScore_200nM>  (457) 
0.0026450000000000002

>  <TransFSScore>  (457) 
0.0129605

>  <FeatureSteinScore>  (457) 
0.28592055792955151

>  <XCos_RefMols>  (457) 
x0104_0

>  <XCos_NumHits>  (457) 
1

>  <XCos_Score1>  (457) 
8.9916

>  <XCos_Score2>  (457) 
0.1016

>  <XCos_Score3>  (457) 
0.0113

$$$$
C#CCC(=O)Nc1cc(Cl)cc(Br)c1
     RDKit          3D

 14 14  0  0  0  0  0  0  0  0999 V2000
   12.3949    6.7754   26.5681 C   0  0  0  0  0  0  0  0  0  0  0  0
   12.5938    6.4720   25.4183 C   0  0  0  0  0  0  0  0  0  0  0  0
   12.8354    6.1040   24.0208 C   0  0  0  0  0  0  0  0  0  0  0  0
   12.2190    4.7709   23.7345 C   0  0  0  0  0  0  0  0  0  0  0  0
   10.9692    4.6859   23.5902 O   0  0  0  0  0  0  0  0  0  0  0  0
   13.0513    3.6057   23.6180 N   0  0  0  0  0  0  0  0  0  0  0  0
   12.5512    2.2584   23.5719 C   0  0  0  0  0  0  0  0  0  0  0  0
   11.4154    1.8733   24.3069 C   0  0  0  0  0  0  0  0  0  0  0  0
   10.9705    0.5464   24.2670 C   0  0  0  0  0  0  0  0  0  0  0  0
    9.5566    0.0692   25.1894 Cl  0  0  0  0  0  0  0  0  0  0  0  0
   11.6560   -0.4033   23.4991 C   0  0  0  0  0  0  0  0  0  0  0  0
   12.7914   -0.0270   22.7722 C   0  0  0  0  0  0  0  0  0  0  0  0
   13.7261   -1.3055   21.6893 Br  0  0  0  0  0  0  0  0  0  0  0  0
   13.2422    1.2958   22.8201 C   0  0  0  0  0  0  0  0  0  0  0  0
  1  2  3  0
  2  3  1  0
  3  4  1  0
  4  5  2  0
  4  6  1  0
  6  7  1  0
  7  8  2  0
  8  9  1  0
  9 10  1  0
  9 11  2  0
 11 12  1  0
 12 13  1  0
 12 14  2  0
 14  7  1  0
M  END
>  <Hit>  (458) 
Mpro-x0946_0

>  <Receptor>  (458) 
Mpro-x0874_0

>  <SCORE>  (458) 
-12.2767

>  <SCORE.norm>  (458) 
-0.87690900000000005

>  <SCORE.heavy>  (458) 
14

>  <OrigSmiles>  (458) 
C#CCC(=O)Nc1cc(Cl)cc(Br)c1

>  <SuCOS_Score>  (458) 
0.40706938334260523

>  <Max_SuCOS_Score>  (458) 
0.40804269870801857

>  <Cum_SuCOS_Score>  (458) 
3.8836445568742786

>  <TransFSScore_50nM>  (458) 
0.0042090000000000001

>  <TransFSScore_1uM>  (458) 
0.040228

>  <TransFSScore_10nM>  (458) 
0.0066680000000000003

>  <TransFSScore_200nM>  (458) 
0.0027109999999999999

>  <TransFSScore>  (458) 
0.013453999999999999

>  <FeatureSteinScore>  (458) 
0.28328260803334815

>  <XCos_RefMols>  (458) 
x0104_0

>  <XCos_NumHits>  (458) 
1

>  <XCos_Score1>  (458) 
8.9953

>  <XCos_Score2>  (458) 
0.1525

>  <XCos_Score3>  (458) 
0.0169

$$$$
C#CCC(=O)Nc1cc(Cl)cc(Br)c1
     RDKit          3D

 14 14  0  0  0  0  0  0  0  0999 V2000
   12.5023    6.6819   26.5259 C   0  0  0  0  0  0  0  0  0  0  0  0
   12.6427    6.4155   25.3584 C   0  0  0  0  0  0  0  0  0  0  0  0
   12.8136    6.0923   23.9396 C   0  0  0  0  0  0  0  0  0  0  0  0
   12.2155    4.7515   23.6502 C   0  0  0  0  0  0  0  0  0  0  0  0
   10.9755    4.6601   23.4400 O   0  0  0  0  0  0  0  0  0  0  0  0
   13.0546    3.5861   23.6052 N   0  0  0  0  0  0  0  0  0  0  0  0
   12.5596    2.2369   23.5622 C   0  0  0  0  0  0  0  0  0  0  0  0
   11.4372    1.8443   24.3136 C   0  0  0  0  0  0  0  0  0  0  0  0
   10.9973    0.5156   24.2760 C   0  0  0  0  0  0  0  0  0  0  0  0
    9.6001    0.0291   25.2187 Cl  0  0  0  0  0  0  0  0  0  0  0  0
   11.6747   -0.4284   23.4941 C   0  0  0  0  0  0  0  0  0  0  0  0
   12.7970   -0.0447   22.7508 C   0  0  0  0  0  0  0  0  0  0  0  0
   13.7201   -1.3153   21.6488 Br  0  0  0  0  0  0  0  0  0  0  0  0
   13.2429    1.2799   22.7963 C   0  0  0  0  0  0  0  0  0  0  0  0
  1  2  3  0
  2  3  1  0
  3  4  1  0
  4  5  2  0
  4  6  1  0
  6  7  1  0
  7  8  2  0
  8  9  1  0
  9 10  1  0
  9 11  2  0
 11 12  1  0
 12 13  1  0
 12 14  2  0
 14  7  1  0
M  END
>  <Hit>  (459) 
Mpro-x0946_0

>  <Receptor>  (459) 
Mpro-x0874_0

>  <SCORE>  (459) 
-12.283899999999999

>  <SCORE.norm>  (459) 
-0.87741899999999995

>  <SCORE.heavy>  (459) 
14

>  <OrigSmiles>  (459) 
C#CCC(=O)Nc1cc(Cl)cc(Br)c1

>  <SuCOS_Score>  (459) 
0.40303650506449096

>  <Max_SuCOS_Score>  (459) 
0.4068032769898709

>  <Cum_SuCOS_Score>  (459) 
3.8892210441761219

>  <TransFSScore_50nM>  (459) 
0.0044990000000000004

>  <TransFSScore_1uM>  (459) 
0.042536999999999998

>  <TransFSScore_10nM>  (459) 
0.006914

>  <TransFSScore_200nM>  (459) 
0.0027330000000000002

>  <TransFSScore>  (459) 
0.014170749999999999

>  <FeatureSteinScore>  (459) 
0.27937084641541327

>  <XCos_RefMols>  (459) 
x0104_0

>  <XCos_NumHits>  (459) 
1

>  <XCos_Score1>  (459) 
8.9834

>  <XCos_Score2>  (459) 
0.1523

>  <XCos_Score3>  (459) 
0.0169

$$$$
C#CCC(=O)Nc1ccc(Br)cc1Cl
     RDKit          3D

 14 14  0  0  0  0  0  0  0  0999 V2000
    8.9123    6.7281   23.2644 C   0  0  0  0  0  0  0  0  0  0  0  0
   10.0745    6.5760   23.5468 C   0  0  0  0  0  0  0  0  0  0  0  0
   11.4870    6.3920   23.8898 C   0  0  0  0  0  0  0  0  0  0  0  0
   11.8020    4.9316   23.9726 C   0  0  0  0  0  0  0  0  0  0  0  0
   12.5624    4.5133   24.8876 O   0  0  0  0  0  0  0  0  0  0  0  0
   11.2383    4.0200   23.0162 N   0  0  0  0  0  0  0  0  0  0  0  0
   11.6394    2.6438   22.8952 C   0  0  0  0  0  0  0  0  0  0  0  0
   12.9090    2.2267   23.3326 C   0  0  0  0  0  0  0  0  0  0  0  0
   13.3101    0.8967   23.1835 C   0  0  0  0  0  0  0  0  0  0  0  0
   12.4565   -0.0326   22.5849 C   0  0  0  0  0  0  0  0  0  0  0  0
   13.0452   -1.8431   22.3489 Br  0  0  0  0  0  0  0  0  0  0  0  0
   11.1915    0.3689   22.1421 C   0  0  0  0  0  0  0  0  0  0  0  0
   10.7822    1.7019   22.2893 C   0  0  0  0  0  0  0  0  0  0  0  0
    9.1776    2.1555   21.7290 Cl  0  0  0  0  0  0  0  0  0  0  0  0
  1  2  3  0
  2  3  1  0
  3  4  1  0
  4  5  2  0
  4  6  1  0
  6  7  1  0
  7  8  2  0
  8  9  1  0
  9 10  2  0
 10 11  1  0
 10 12  1  0
 12 13  2  0
 13 14  1  0
 13  7  1  0
M  END
>  <Hit>  (460) 
Mpro-x0946_0

>  <Receptor>  (460) 
Mpro-x0305_0

>  <SCORE>  (460) 
-10.224500000000001

>  <SCORE.norm>  (460) 
-0.73032399999999997

>  <SCORE.heavy>  (460) 
14

>  <OrigSmiles>  (460) 
C#CCC(=O)Nc1ccc(Br)cc1Cl

>  <SuCOS_Score>  (460) 
0.41645349143520283

>  <Max_SuCOS_Score>  (460) 
0.41645349143520283

>  <Cum_SuCOS_Score>  (460) 
3.5394972878176394

>  <TransFSScore_50nM>  (460) 
0.0044920000000000003

>  <TransFSScore_1uM>  (460) 
0.020388

>  <TransFSScore_10nM>  (460) 
0.004483

>  <TransFSScore_200nM>  (460) 
0.0074949999999999999

>  <TransFSScore>  (460) 
0.0092145000000000005

>  <FeatureSteinScore>  (460) 
0.14249602188064897

>  <XCos_RefMols>  (460) 
x0104_0

>  <XCos_NumHits>  (460) 
1

>  <XCos_Score1>  (460) 
8.6266

>  <XCos_Score2>  (460) 
0.0975

>  <XCos_Score3>  (460) 
0.0113

$$$$
C#CCC(=O)Nc1ccc(Br)cc1Cl
     RDKit          3D

 14 14  0  0  0  0  0  0  0  0999 V2000
    9.1004    6.6517   22.8343 C   0  0  0  0  0  0  0  0  0  0  0  0
   10.2268    6.4728   23.2251 C   0  0  0  0  0  0  0  0  0  0  0  0
   11.5960    6.2560   23.6993 C   0  0  0  0  0  0  0  0  0  0  0  0
   11.8584    4.7892   23.8357 C   0  0  0  0  0  0  0  0  0  0  0  0
   12.5926    4.3764   24.7743 O   0  0  0  0  0  0  0  0  0  0  0  0
   11.2747    3.8655   22.9032 N   0  0  0  0  0  0  0  0  0  0  0  0
   11.6286    2.4729   22.8342 C   0  0  0  0  0  0  0  0  0  0  0  0
   12.9003    2.0359   23.2452 C   0  0  0  0  0  0  0  0  0  0  0  0
   13.2546    0.6880   23.1458 C   0  0  0  0  0  0  0  0  0  0  0  0
   12.3512   -0.2401   22.6237 C   0  0  0  0  0  0  0  0  0  0  0  0
   12.8748   -2.0779   22.4539 Br  0  0  0  0  0  0  0  0  0  0  0  0
   11.0833    0.1809   22.2078 C   0  0  0  0  0  0  0  0  0  0  0  0
   10.7209    1.5319   22.3054 C   0  0  0  0  0  0  0  0  0  0  0  0
    9.1111    2.0105   21.7819 Cl  0  0  0  0  0  0  0  0  0  0  0  0
  1  2  3  0
  2  3  1  0
  3  4  1  0
  4  5  2  0
  4  6  1  0
  6  7  1  0
  7  8  2  0
  8  9  1  0
  9 10  2  0
 10 11  1  0
 10 12  1  0
 12 13  2  0
 13 14  1  0
 13  7  1  0
M  END
>  <Hit>  (461) 
Mpro-x0946_0

>  <Receptor>  (461) 
Mpro-x0305_0

>  <SCORE>  (461) 
-10.3314

>  <SCORE.norm>  (461) 
-0.73795699999999997

>  <SCORE.heavy>  (461) 
14

>  <OrigSmiles>  (461) 
C#CCC(=O)Nc1ccc(Br)cc1Cl

>  <SuCOS_Score>  (461) 
0.39477275235661879

>  <Max_SuCOS_Score>  (461) 
0.39477275235661879

>  <Cum_SuCOS_Score>  (461) 
3.6577922781328476

>  <TransFSScore_50nM>  (461) 
0.0058259999999999996

>  <TransFSScore_1uM>  (461) 
0.020115999999999998

>  <TransFSScore_10nM>  (461) 
0.00481

>  <TransFSScore_200nM>  (461) 
0.011773

>  <TransFSScore>  (461) 
0.01063125

>  <FeatureSteinScore>  (461) 
0.14483916612644793

>  <XCos_RefMols>  (461) 


>  <XCos_NumHits>  (461) 
0

>  <XCos_Score1>  (461) 
8.6928

>  <XCos_Score2>  (461) 
0.0982

>  <XCos_Score3>  (461) 
0.0113

$$$$
C#CCC(=O)Nc1ccc(Br)cc1Cl
     RDKit          3D

 14 14  0  0  0  0  0  0  0  0999 V2000
    9.0608    6.6902   23.0780 C   0  0  0  0  0  0  0  0  0  0  0  0
   10.2195    6.4983   23.3502 C   0  0  0  0  0  0  0  0  0  0  0  0
   11.6274    6.2648   23.6818 C   0  0  0  0  0  0  0  0  0  0  0  0
   11.8783    4.7962   23.8203 C   0  0  0  0  0  0  0  0  0  0  0  0
   12.5839    4.3764   24.7775 O   0  0  0  0  0  0  0  0  0  0  0  0
   11.3157    3.8788   22.8690 N   0  0  0  0  0  0  0  0  0  0  0  0
   11.6640    2.4845   22.8049 C   0  0  0  0  0  0  0  0  0  0  0  0
   12.9233    2.0399   23.2453 C   0  0  0  0  0  0  0  0  0  0  0  0
   13.2730    0.6905   23.1510 C   0  0  0  0  0  0  0  0  0  0  0  0
   12.3776   -0.2317   22.6050 C   0  0  0  0  0  0  0  0  0  0  0  0
   12.8957   -2.0718   22.4432 Br  0  0  0  0  0  0  0  0  0  0  0  0
   11.1222    0.1969   22.1598 C   0  0  0  0  0  0  0  0  0  0  0  0
   10.7645    1.5494   22.2522 C   0  0  0  0  0  0  0  0  0  0  0  0
    9.1702    2.0376   21.6914 Cl  0  0  0  0  0  0  0  0  0  0  0  0
  1  2  3  0
  2  3  1  0
  3  4  1  0
  4  5  2  0
  4  6  1  0
  6  7  1  0
  7  8  2  0
  8  9  1  0
  9 10  2  0
 10 11  1  0
 10 12  1  0
 12 13  2  0
 13 14  1  0
 13  7  1  0
M  END
>  <Hit>  (462) 
Mpro-x0946_0

>  <Receptor>  (462) 
Mpro-x0305_0

>  <SCORE>  (462) 
-10.5082

>  <SCORE.norm>  (462) 
-0.75058400000000003

>  <SCORE.heavy>  (462) 
14

>  <OrigSmiles>  (462) 
C#CCC(=O)Nc1ccc(Br)cc1Cl

>  <SuCOS_Score>  (462) 
0.39226166388052258

>  <Max_SuCOS_Score>  (462) 
0.39226166388052258

>  <Cum_SuCOS_Score>  (462) 
3.6176395283423224

>  <TransFSScore_50nM>  (462) 
0.0057609999999999996

>  <TransFSScore_1uM>  (462) 
0.021669000000000001

>  <TransFSScore_10nM>  (462) 
0.004633

>  <TransFSScore_200nM>  (462) 
0.011282

>  <TransFSScore>  (462) 
0.01083625

>  <FeatureSteinScore>  (462) 
0.13868023770777541

>  <XCos_RefMols>  (462) 


>  <XCos_NumHits>  (462) 
0

>  <XCos_Score1>  (462) 
8.5954

>  <XCos_Score2>  (462) 
0.0971

>  <XCos_Score3>  (462) 
0.0113

$$$$
C#CCC(=O)Nc1ccc(Br)cc1Cl
     RDKit          3D

 14 14  0  0  0  0  0  0  0  0999 V2000
    5.2606    3.8593   21.6970 C   0  0  0  0  0  0  0  0  0  0  0  0
    5.2625    2.9507   20.9046 C   0  0  0  0  0  0  0  0  0  0  0  0
    5.2645    1.8468   19.9411 C   0  0  0  0  0  0  0  0  0  0  0  0
    6.5155    1.0409   20.0970 C   0  0  0  0  0  0  0  0  0  0  0  0
    6.6068   -0.0781   19.5227 O   0  0  0  0  0  0  0  0  0  0  0  0
    7.5994    1.5444   20.8942 N   0  0  0  0  0  0  0  0  0  0  0  0
    8.7482    0.7607   21.2618 C   0  0  0  0  0  0  0  0  0  0  0  0
    8.8536   -0.5857   20.8655 C   0  0  0  0  0  0  0  0  0  0  0  0
    9.9577   -1.3560   21.2475 C   0  0  0  0  0  0  0  0  0  0  0  0
   10.9651   -0.7921   22.0372 C   0  0  0  0  0  0  0  0  0  0  0  0
   12.5025   -1.8225   22.5425 Br  0  0  0  0  0  0  0  0  0  0  0  0
   10.8600    0.5376   22.4529 C   0  0  0  0  0  0  0  0  0  0  0  0
    9.7584    1.3140   22.0736 C   0  0  0  0  0  0  0  0  0  0  0  0
    9.6890    2.9903   22.6025 Cl  0  0  0  0  0  0  0  0  0  0  0  0
  1  2  3  0
  2  3  1  0
  3  4  1  0
  4  5  2  0
  4  6  1  0
  6  7  1  0
  7  8  2  0
  8  9  1  0
  9 10  2  0
 10 11  1  0
 10 12  1  0
 12 13  2  0
 13 14  1  0
 13  7  1  0
M  END
>  <Hit>  (463) 
Mpro-x0946_0

>  <Receptor>  (463) 
Mpro-x0387_0

>  <SCORE>  (463) 
-6.0332499999999998

>  <SCORE.norm>  (463) 
-0.430946

>  <SCORE.heavy>  (463) 
14

>  <OrigSmiles>  (463) 
C#CCC(=O)Nc1ccc(Br)cc1Cl

>  <SuCOS_Score>  (463) 
0.12723093564088694

>  <Max_SuCOS_Score>  (463) 
0.30113502272213333

>  <Cum_SuCOS_Score>  (463) 
3.9124888573944143

>  <TransFSScore_50nM>  (463) 
0.000941

>  <TransFSScore_1uM>  (463) 
0.0092219999999999993

>  <TransFSScore_10nM>  (463) 
0.00232

>  <TransFSScore_200nM>  (463) 
0.025922000000000001

>  <TransFSScore>  (463) 
0.0096012499999999987

>  <FeatureSteinScore>  (463) 
0.18900514543061325

>  <XCos_RefMols>  (463) 
x0107_0

>  <XCos_NumHits>  (463) 
1

>  <XCos_Score1>  (463) 
8.4509

>  <XCos_Score2>  (463) 
0.0477

>  <XCos_Score3>  (463) 
0.0056

$$$$
C#CCC(=O)Nc1ccc(Br)cc1Cl
     RDKit          3D

 14 14  0  0  0  0  0  0  0  0999 V2000
    6.2110   -1.1775   17.6411 C   0  0  0  0  0  0  0  0  0  0  0  0
    5.8659   -0.4134   18.5075 C   0  0  0  0  0  0  0  0  0  0  0  0
    5.4460    0.5156   19.5597 C   0  0  0  0  0  0  0  0  0  0  0  0
    6.5935    0.7910   20.4797 C   0  0  0  0  0  0  0  0  0  0  0  0
    6.8871    1.9843   20.7629 O   0  0  0  0  0  0  0  0  0  0  0  0
    7.3482   -0.2990   21.0326 N   0  0  0  0  0  0  0  0  0  0  0  0
    8.5790   -0.1288   21.7574 C   0  0  0  0  0  0  0  0  0  0  0  0
    9.1207    1.1533   21.9579 C   0  0  0  0  0  0  0  0  0  0  0  0
   10.3335    1.3144   22.6326 C   0  0  0  0  0  0  0  0  0  0  0  0
   11.0291    0.1995   23.1053 C   0  0  0  0  0  0  0  0  0  0  0  0
   12.7148    0.4405   23.9888 Br  0  0  0  0  0  0  0  0  0  0  0  0
   10.5036   -1.0826   22.9103 C   0  0  0  0  0  0  0  0  0  0  0  0
    9.2866   -1.2515   22.2348 C   0  0  0  0  0  0  0  0  0  0  0  0
    8.6602   -2.8820   22.0258 Cl  0  0  0  0  0  0  0  0  0  0  0  0
  1  2  3  0
  2  3  1  0
  3  4  1  0
  4  5  2  0
  4  6  1  0
  6  7  1  0
  7  8  2  0
  8  9  1  0
  9 10  2  0
 10 11  1  0
 10 12  1  0
 12 13  2  0
 13 14  1  0
 13  7  1  0
M  END
>  <Hit>  (464) 
Mpro-x0946_0

>  <Receptor>  (464) 
Mpro-x0387_0

>  <SCORE>  (464) 
-6.5856899999999996

>  <SCORE.norm>  (464) 
-0.47040599999999999

>  <SCORE.heavy>  (464) 
14

>  <OrigSmiles>  (464) 
C#CCC(=O)Nc1ccc(Br)cc1Cl

>  <SuCOS_Score>  (464) 
0.12535019760414509

>  <Max_SuCOS_Score>  (464) 
0.43103721179163956

>  <Cum_SuCOS_Score>  (464) 
4.6822427364379289

>  <TransFSScore_50nM>  (464) 
0.00077800000000000005

>  <TransFSScore_1uM>  (464) 
0.011736999999999999

>  <TransFSScore_10nM>  (464) 
0.00167

>  <TransFSScore_200nM>  (464) 
0.044148

>  <TransFSScore>  (464) 
0.014583249999999999

>  <FeatureSteinScore>  (464) 
0.39376731402638088

>  <XCos_RefMols>  (464) 
x0434_0,x0540_0

>  <XCos_NumHits>  (464) 
2

>  <XCos_Score1>  (464) 
10.6346

>  <XCos_Score2>  (464) 
0.0601

>  <XCos_Score3>  (464) 
0.0056

$$$$
C#CCC(=O)Nc1ccc(Br)cc1Cl
     RDKit          3D

 14 14  0  0  0  0  0  0  0  0999 V2000
    7.4218    6.6641   21.5793 C   0  0  0  0  0  0  0  0  0  0  0  0
    6.8043    5.6348   21.6915 C   0  0  0  0  0  0  0  0  0  0  0  0
    6.0542    4.3835   21.8285 C   0  0  0  0  0  0  0  0  0  0  0  0
    6.9639    3.2195   21.5910 C   0  0  0  0  0  0  0  0  0  0  0  0
    6.5879    2.2846   20.8327 O   0  0  0  0  0  0  0  0  0  0  0  0
    8.2529    3.1747   22.2233 N   0  0  0  0  0  0  0  0  0  0  0  0
    9.1041    2.0151   22.2146 C   0  0  0  0  0  0  0  0  0  0  0  0
    8.5986    0.7582   21.8332 C   0  0  0  0  0  0  0  0  0  0  0  0
    9.4195   -0.3750   21.8523 C   0  0  0  0  0  0  0  0  0  0  0  0
   10.7528   -0.2667   22.2609 C   0  0  0  0  0  0  0  0  0  0  0  0
   11.9026   -1.8025   22.2614 Br  0  0  0  0  0  0  0  0  0  0  0  0
   11.2587    0.9727   22.6607 C   0  0  0  0  0  0  0  0  0  0  0  0
   10.4431    2.1105   22.6433 C   0  0  0  0  0  0  0  0  0  0  0  0
   11.1381    3.6510   23.1316 Cl  0  0  0  0  0  0  0  0  0  0  0  0
  1  2  3  0
  2  3  1  0
  3  4  1  0
  4  5  2  0
  4  6  1  0
  6  7  1  0
  7  8  2  0
  8  9  1  0
  9 10  2  0
 10 11  1  0
 10 12  1  0
 12 13  2  0
 13 14  1  0
 13  7  1  0
M  END
>  <Hit>  (465) 
Mpro-x0946_0

>  <Receptor>  (465) 
Mpro-x0387_0

>  <SCORE>  (465) 
-6.6022299999999996

>  <SCORE.norm>  (465) 
-0.47158800000000001

>  <SCORE.heavy>  (465) 
14

>  <OrigSmiles>  (465) 
C#CCC(=O)Nc1ccc(Br)cc1Cl

>  <SuCOS_Score>  (465) 
0.18238280906563908

>  <Max_SuCOS_Score>  (465) 
0.2973961978094824

>  <Cum_SuCOS_Score>  (465) 
3.2143596101015013

>  <TransFSScore_50nM>  (465) 
0.0013090000000000001

>  <TransFSScore_1uM>  (465) 
0.0081169999999999992

>  <TransFSScore_10nM>  (465) 
0.0025560000000000001

>  <TransFSScore_200nM>  (465) 
0.0086949999999999996

>  <TransFSScore>  (465) 
0.0051692500000000002

>  <FeatureSteinScore>  (465) 
0.16246289438495415

>  <XCos_RefMols>  (465) 
x0967_0

>  <XCos_NumHits>  (465) 
1

>  <XCos_Score1>  (465) 
8.2826

>  <XCos_Score2>  (465) 
0.0468

>  <XCos_Score3>  (465) 
0.0056

$$$$
C#CCC(=O)Nc1ccc(Br)cc1Cl
     RDKit          3D

 14 14  0  0  0  0  0  0  0  0999 V2000
    5.3850    2.3062   17.1285 C   0  0  0  0  0  0  0  0  0  0  0  0
    5.2521    1.4475   17.9642 C   0  0  0  0  0  0  0  0  0  0  0  0
    5.0901    0.4036   18.9796 C   0  0  0  0  0  0  0  0  0  0  0  0
    6.4330   -0.0976   19.4091 C   0  0  0  0  0  0  0  0  0  0  0  0
    6.8078   -1.2475   19.0521 O   0  0  0  0  0  0  0  0  0  0  0  0
    7.2828    0.7299   20.2195 N   0  0  0  0  0  0  0  0  0  0  0  0
    8.4923    0.2610   20.8411 C   0  0  0  0  0  0  0  0  0  0  0  0
    8.9021   -1.0772   20.6921 C   0  0  0  0  0  0  0  0  0  0  0  0
   10.0636   -1.5402   21.3205 C   0  0  0  0  0  0  0  0  0  0  0  0
   10.8243   -0.6735   22.1121 C   0  0  0  0  0  0  0  0  0  0  0  0
   12.4376   -1.2812   22.9539 Br  0  0  0  0  0  0  0  0  0  0  0  0
   10.4150    0.6513   22.2829 C   0  0  0  0  0  0  0  0  0  0  0  0
    9.2545    1.1212   21.6564 C   0  0  0  0  0  0  0  0  0  0  0  0
    8.7992    2.8052   21.8837 Cl  0  0  0  0  0  0  0  0  0  0  0  0
  1  2  3  0
  2  3  1  0
  3  4  1  0
  4  5  2  0
  4  6  1  0
  6  7  1  0
  7  8  2  0
  8  9  1  0
  9 10  2  0
 10 11  1  0
 10 12  1  0
 12 13  2  0
 13 14  1  0
 13  7  1  0
M  END
>  <Hit>  (466) 
Mpro-x0946_0

>  <Receptor>  (466) 
Mpro-x0387_0

>  <SCORE>  (466) 
-6.9629200000000004

>  <SCORE.norm>  (466) 
-0.49735200000000002

>  <SCORE.heavy>  (466) 
14

>  <OrigSmiles>  (466) 
C#CCC(=O)Nc1ccc(Br)cc1Cl

>  <SuCOS_Score>  (466) 
0.10316387236343971

>  <Max_SuCOS_Score>  (466) 
0.35760885120599029

>  <Cum_SuCOS_Score>  (466) 
4.1507932802785694

>  <TransFSScore_50nM>  (466) 
0.00018000000000000001

>  <TransFSScore_1uM>  (466) 
0.01392

>  <TransFSScore_10nM>  (466) 
0.003019

>  <TransFSScore_200nM>  (466) 
0.020069

>  <TransFSScore>  (466) 
0.0092969999999999997

>  <FeatureSteinScore>  (466) 
0.15076095451249164

>  <XCos_RefMols>  (466) 
x0995_0,x0678_0

>  <XCos_NumHits>  (466) 
2

>  <XCos_Score1>  (466) 
9.1800

>  <XCos_Score2>  (466) 
0.0000

>  <XCos_Score3>  (466) 
0.0000

$$$$
C#CCC(=O)Nc1ccc(Br)cc1Cl
     RDKit          3D

 14 14  0  0  0  0  0  0  0  0999 V2000
    7.6740    6.6045   21.4924 C   0  0  0  0  0  0  0  0  0  0  0  0
    7.5600    5.6284   22.1908 C   0  0  0  0  0  0  0  0  0  0  0  0
    7.4211    4.4418   23.0390 C   0  0  0  0  0  0  0  0  0  0  0  0
    8.3463    3.3671   22.5615 C   0  0  0  0  0  0  0  0  0  0  0  0
    7.8692    2.3456   21.9964 O   0  0  0  0  0  0  0  0  0  0  0  0
    9.7640    3.5051   22.7472 N   0  0  0  0  0  0  0  0  0  0  0  0
   10.7056    2.4450   22.5047 C   0  0  0  0  0  0  0  0  0  0  0  0
   10.2871    1.2347   21.9210 C   0  0  0  0  0  0  0  0  0  0  0  0
   11.1977    0.1929   21.7116 C   0  0  0  0  0  0  0  0  0  0  0  0
   12.5353    0.3455   22.0909 C   0  0  0  0  0  0  0  0  0  0  0  0
   13.8053   -1.0587   21.7810 Br  0  0  0  0  0  0  0  0  0  0  0  0
   12.9565    1.5355   22.6897 C   0  0  0  0  0  0  0  0  0  0  0  0
   12.0508    2.5819   22.9015 C   0  0  0  0  0  0  0  0  0  0  0  0
   12.6398    4.0684   23.6351 Cl  0  0  0  0  0  0  0  0  0  0  0  0
  1  2  3  0
  2  3  1  0
  3  4  1  0
  4  5  2  0
  4  6  1  0
  6  7  1  0
  7  8  2  0
  8  9  1  0
  9 10  2  0
 10 11  1  0
 10 12  1  0
 12 13  2  0
 13 14  1  0
 13  7  1  0
M  END
>  <Hit>  (467) 
Mpro-x0946_0

>  <Receptor>  (467) 
Mpro-x0874_0

>  <SCORE>  (467) 
-8.9719099999999994

>  <SCORE.norm>  (467) 
-0.64085099999999995

>  <SCORE.heavy>  (467) 
14

>  <OrigSmiles>  (467) 
C#CCC(=O)Nc1ccc(Br)cc1Cl

>  <SuCOS_Score>  (467) 
0.3483500990196321

>  <Max_SuCOS_Score>  (467) 
0.3483500990196321

>  <Cum_SuCOS_Score>  (467) 
3.0998651684370935

>  <TransFSScore_50nM>  (467) 
0.001598

>  <TransFSScore_1uM>  (467) 
0.0097370000000000009

>  <TransFSScore_10nM>  (467) 
0.0016329999999999999

>  <TransFSScore_200nM>  (467) 
0.014118

>  <TransFSScore>  (467) 
0.0067714999999999997

>  <FeatureSteinScore>  (467) 
0.26537559951907286

>  <XCos_RefMols>  (467) 
x0874_0

>  <XCos_NumHits>  (467) 
1

>  <XCos_Score1>  (467) 
9.4825

>  <XCos_Score2>  (467) 
0.1071

>  <XCos_Score3>  (467) 
0.0113

$$$$
C#CCC(=O)Nc1ccc(Br)cc1Cl
     RDKit          3D

 14 14  0  0  0  0  0  0  0  0999 V2000
    8.6918    6.5232   22.1818 C   0  0  0  0  0  0  0  0  0  0  0  0
    9.3098    6.2669   23.1847 C   0  0  0  0  0  0  0  0  0  0  0  0
   10.0606    5.9545   24.4034 C   0  0  0  0  0  0  0  0  0  0  0  0
   10.8646    4.7094   24.1977 C   0  0  0  0  0  0  0  0  0  0  0  0
   12.0539    4.6646   24.6148 O   0  0  0  0  0  0  0  0  0  0  0  0
   10.2799    3.5788   23.5320 N   0  0  0  0  0  0  0  0  0  0  0  0
   11.0302    2.4247   23.1144 C   0  0  0  0  0  0  0  0  0  0  0  0
   12.3862    2.2883   23.4604 C   0  0  0  0  0  0  0  0  0  0  0  0
   13.1227    1.1835   23.0256 C   0  0  0  0  0  0  0  0  0  0  0  0
   12.5212    0.2063   22.2295 C   0  0  0  0  0  0  0  0  0  0  0  0
   13.5629   -1.2789   21.6057 Br  0  0  0  0  0  0  0  0  0  0  0  0
   11.1734    0.3304   21.8748 C   0  0  0  0  0  0  0  0  0  0  0  0
   10.4283    1.4362   22.3084 C   0  0  0  0  0  0  0  0  0  0  0  0
    8.7338    1.5412   21.8475 Cl  0  0  0  0  0  0  0  0  0  0  0  0
  1  2  3  0
  2  3  1  0
  3  4  1  0
  4  5  2  0
  4  6  1  0
  6  7  1  0
  7  8  2  0
  8  9  1  0
  9 10  2  0
 10 11  1  0
 10 12  1  0
 12 13  2  0
 13 14  1  0
 13  7  1  0
M  END
>  <Hit>  (468) 
Mpro-x0946_0

>  <Receptor>  (468) 
Mpro-x1249_0

>  <SCORE>  (468) 
-9.3881999999999994

>  <SCORE.norm>  (468) 
-0.67058499999999999

>  <SCORE.heavy>  (468) 
14

>  <OrigSmiles>  (468) 
C#CCC(=O)Nc1ccc(Br)cc1Cl

>  <SuCOS_Score>  (468) 
0.41481709883419637

>  <Max_SuCOS_Score>  (468) 
0.41481709883419637

>  <Cum_SuCOS_Score>  (468) 
3.423331058673881

>  <TransFSScore_50nM>  (468) 
0.0041749999999999999

>  <TransFSScore_1uM>  (468) 
0.0084329999999999995

>  <TransFSScore_10nM>  (468) 
0.0027880000000000001

>  <TransFSScore_200nM>  (468) 
0.0074019999999999997

>  <TransFSScore>  (468) 
0.0056994999999999997

>  <FeatureSteinScore>  (468) 
0.13945237658778478

>  <XCos_RefMols>  (468) 


>  <XCos_NumHits>  (468) 
0

>  <XCos_Score1>  (468) 
8.4673

>  <XCos_Score2>  (468) 
0.0478

>  <XCos_Score3>  (468) 
0.0056

$$$$
C#CCC(=O)Nc1ccc(Br)cc1Cl
     RDKit          3D

 14 14  0  0  0  0  0  0  0  0999 V2000
    4.2343    1.2201   19.6085 C   0  0  0  0  0  0  0  0  0  0  0  0
    5.1355    0.7939   18.9306 C   0  0  0  0  0  0  0  0  0  0  0  0
    6.2313    0.2763   18.1070 C   0  0  0  0  0  0  0  0  0  0  0  0
    7.4810    0.1871   18.9250 C   0  0  0  0  0  0  0  0  0  0  0  0
    8.3514   -0.6775   18.6333 O   0  0  0  0  0  0  0  0  0  0  0  0
    7.6812    1.0824   20.0303 N   0  0  0  0  0  0  0  0  0  0  0  0
    8.7466    0.9411   20.9864 C   0  0  0  0  0  0  0  0  0  0  0  0
    9.5489   -0.2151   20.9993 C   0  0  0  0  0  0  0  0  0  0  0  0
   10.5668   -0.3648   21.9480 C   0  0  0  0  0  0  0  0  0  0  0  0
   10.7890    0.6354   22.9001 C   0  0  0  0  0  0  0  0  0  0  0  0
   12.2014    0.4632   24.1870 Br  0  0  0  0  0  0  0  0  0  0  0  0
    9.9848    1.7779   22.9086 C   0  0  0  0  0  0  0  0  0  0  0  0
    8.9653    1.9343   21.9619 C   0  0  0  0  0  0  0  0  0  0  0  0
    7.9997    3.4043   22.0010 Cl  0  0  0  0  0  0  0  0  0  0  0  0
  1  2  3  0
  2  3  1  0
  3  4  1  0
  4  5  2  0
  4  6  1  0
  6  7  1  0
  7  8  2  0
  8  9  1  0
  9 10  2  0
 10 11  1  0
 10 12  1  0
 12 13  2  0
 13 14  1  0
 13  7  1  0
M  END
>  <Hit>  (469) 
Mpro-x0946_0

>  <Receptor>  (469) 
Mpro-x0387_0

>  <SCORE>  (469) 
-9.3906299999999998

>  <SCORE.norm>  (469) 
-0.67075899999999999

>  <SCORE.heavy>  (469) 
14

>  <OrigSmiles>  (469) 
C#CCC(=O)Nc1ccc(Br)cc1Cl

>  <SuCOS_Score>  (469) 
0.13512666002807855

>  <Max_SuCOS_Score>  (469) 
0.34611702533108307

>  <Cum_SuCOS_Score>  (469) 
4.0259338737206622

>  <TransFSScore_50nM>  (469) 
0.00089599999999999999

>  <TransFSScore_1uM>  (469) 
0.032453000000000003

>  <TransFSScore_10nM>  (469) 
0.0021610000000000002

>  <TransFSScore_200nM>  (469) 
0.039324999999999999

>  <TransFSScore>  (469) 
0.018708750000000003

>  <FeatureSteinScore>  (469) 
0.095815513707504074

>  <XCos_RefMols>  (469) 
x0426_0

>  <XCos_NumHits>  (469) 
1

>  <XCos_Score1>  (469) 
8.5056

>  <XCos_Score2>  (469) 
0.0000

>  <XCos_Score3>  (469) 
0.0000

$$$$
C#CCC(=O)Nc1ccc(Cl)cc1Br
     RDKit          3D

 14 14  0  0  0  0  0  0  0  0999 V2000
   12.7628    5.8781   24.7721 C   0  0  0  0  0  0  0  0  0  0  0  0
   13.0151    5.0025   23.9827 C   0  0  0  0  0  0  0  0  0  0  0  0
   13.3223    3.9387   23.0231 C   0  0  0  0  0  0  0  0  0  0  0  0
   12.2596    2.8868   23.0760 C   0  0  0  0  0  0  0  0  0  0  0  0
   11.0650    3.2241   23.2989 O   0  0  0  0  0  0  0  0  0  0  0  0
   12.6035    1.5072   22.8724 N   0  0  0  0  0  0  0  0  0  0  0  0
   11.6282    0.4616   22.7179 C   0  0  0  0  0  0  0  0  0  0  0  0
   10.2712    0.7159   22.9814 C   0  0  0  0  0  0  0  0  0  0  0  0
    9.3119   -0.2818   22.7969 C   0  0  0  0  0  0  0  0  0  0  0  0
    9.6999   -1.5469   22.3452 C   0  0  0  0  0  0  0  0  0  0  0  0
    8.4965   -2.8024   22.1161 Cl  0  0  0  0  0  0  0  0  0  0  0  0
   11.0474   -1.8102   22.0682 C   0  0  0  0  0  0  0  0  0  0  0  0
   12.0122   -0.8071   22.2419 C   0  0  0  0  0  0  0  0  0  0  0  0
   13.8541   -1.1839   21.8320 Br  0  0  0  0  0  0  0  0  0  0  0  0
  1  2  3  0
  2  3  1  0
  3  4  1  0
  4  5  2  0
  4  6  1  0
  6  7  1  0
  7  8  2  0
  8  9  1  0
  9 10  2  0
 10 11  1  0
 10 12  1  0
 12 13  2  0
 13 14  1  0
 13  7  1  0
M  END
>  <Hit>  (470) 
Mpro-x0946_0

>  <Receptor>  (470) 
Mpro-x0305_0

>  <SCORE>  (470) 
-10.4208

>  <SCORE.norm>  (470) 
-0.74434400000000001

>  <SCORE.heavy>  (470) 
14

>  <OrigSmiles>  (470) 
C#CCC(=O)Nc1ccc(Cl)cc1Br

>  <SuCOS_Score>  (470) 
0.29951578152625902

>  <Max_SuCOS_Score>  (470) 
0.3543891027063904

>  <Cum_SuCOS_Score>  (470) 
4.1969388327626609

>  <TransFSScore_50nM>  (470) 
0.0034280000000000001

>  <TransFSScore_1uM>  (470) 
0.021711000000000001

>  <TransFSScore_10nM>  (470) 
0.011475000000000001

>  <TransFSScore_200nM>  (470) 
0.021505

>  <TransFSScore>  (470) 
0.014529750000000001

>  <FeatureSteinScore>  (470) 
0.36151711386144841

>  <XCos_RefMols>  (470) 
x1382_0,x0104_0

>  <XCos_NumHits>  (470) 
2

>  <XCos_Score1>  (470) 
11.1121

>  <XCos_Score2>  (470) 
0.1256

>  <XCos_Score3>  (470) 
0.0113

$$$$
C#CCC(=O)Nc1ccc(Cl)cc1Br
     RDKit          3D

 14 14  0  0  0  0  0  0  0  0999 V2000
   10.4112   -5.6008   25.7796 C   0  0  0  0  0  0  0  0  0  0  0  0
    9.9461   -4.8057   25.0018 C   0  0  0  0  0  0  0  0  0  0  0  0
    9.3802   -3.8396   24.0567 C   0  0  0  0  0  0  0  0  0  0  0  0
    9.9267   -2.4755   24.3389 C   0  0  0  0  0  0  0  0  0  0  0  0
    9.4902   -1.8261   25.3279 O   0  0  0  0  0  0  0  0  0  0  0  0
   10.9392   -1.9170   23.4867 N   0  0  0  0  0  0  0  0  0  0  0  0
   11.3776   -0.5497   23.5651 C   0  0  0  0  0  0  0  0  0  0  0  0
   10.6891    0.3749   24.3733 C   0  0  0  0  0  0  0  0  0  0  0  0
   11.0880    1.7136   24.4210 C   0  0  0  0  0  0  0  0  0  0  0  0
   12.1791    2.1428   23.6615 C   0  0  0  0  0  0  0  0  0  0  0  0
   12.6830    3.8219   23.7226 Cl  0  0  0  0  0  0  0  0  0  0  0  0
   12.8660    1.2362   22.8478 C   0  0  0  0  0  0  0  0  0  0  0  0
   12.4646   -0.1041   22.7857 C   0  0  0  0  0  0  0  0  0  0  0  0
   13.4306   -1.2988   21.6273 Br  0  0  0  0  0  0  0  0  0  0  0  0
  1  2  3  0
  2  3  1  0
  3  4  1  0
  4  5  2  0
  4  6  1  0
  6  7  1  0
  7  8  2  0
  8  9  1  0
  9 10  2  0
 10 11  1  0
 10 12  1  0
 12 13  2  0
 13 14  1  0
 13  7  1  0
M  END
>  <Hit>  (471) 
Mpro-x0946_0

>  <Receptor>  (471) 
Mpro-x1249_0

>  <SCORE>  (471) 
-11.6188

>  <SCORE.norm>  (471) 
-0.82991599999999999

>  <SCORE.heavy>  (471) 
14

>  <OrigSmiles>  (471) 
C#CCC(=O)Nc1ccc(Cl)cc1Br

>  <SuCOS_Score>  (471) 
0.32924789605376092

>  <Max_SuCOS_Score>  (471) 
0.44010851426890196

>  <Cum_SuCOS_Score>  (471) 
4.9430334095566142

>  <TransFSScore_50nM>  (471) 
0.0009810000000000001

>  <TransFSScore_1uM>  (471) 
0.0090259999999999993

>  <TransFSScore_10nM>  (471) 
0.001828

>  <TransFSScore_200nM>  (471) 
0.00167

>  <TransFSScore>  (471) 
0.0033762499999999995

>  <FeatureSteinScore>  (471) 
0.45161411472971408

>  <XCos_RefMols>  (471) 
x0104_0,x1374_0,x0395_0

>  <XCos_NumHits>  (471) 
3

>  <XCos_Score1>  (471) 
12.4023

>  <XCos_Score2>  (471) 
0.2102

>  <XCos_Score3>  (471) 
0.0169

$$$$
C#CCC(=O)Nc1ccc(Cl)cc1Br
     RDKit          3D

 14 14  0  0  0  0  0  0  0  0999 V2000
   10.4145   -5.6347   25.9155 C   0  0  0  0  0  0  0  0  0  0  0  0
    9.9715   -4.8648   25.1002 C   0  0  0  0  0  0  0  0  0  0  0  0
    9.4330   -3.9288   24.1100 C   0  0  0  0  0  0  0  0  0  0  0  0
    9.9517   -2.5516   24.3806 C   0  0  0  0  0  0  0  0  0  0  0  0
    9.5117   -1.9080   25.3718 O   0  0  0  0  0  0  0  0  0  0  0  0
   10.9418   -1.9740   23.5149 N   0  0  0  0  0  0  0  0  0  0  0  0
   11.3501   -0.5969   23.5829 C   0  0  0  0  0  0  0  0  0  0  0  0
   10.6574    0.3128   24.4043 C   0  0  0  0  0  0  0  0  0  0  0  0
   11.0262    1.6603   24.4425 C   0  0  0  0  0  0  0  0  0  0  0  0
   12.0913    2.1134   23.6602 C   0  0  0  0  0  0  0  0  0  0  0  0
   12.5575    3.8038   23.7092 Cl  0  0  0  0  0  0  0  0  0  0  0  0
   12.7818    1.2218   22.8333 C   0  0  0  0  0  0  0  0  0  0  0  0
   12.4103   -0.1275   22.7807 C   0  0  0  0  0  0  0  0  0  0  0  0
   13.3794   -1.3013   21.6038 Br  0  0  0  0  0  0  0  0  0  0  0  0
  1  2  3  0
  2  3  1  0
  3  4  1  0
  4  5  2  0
  4  6  1  0
  6  7  1  0
  7  8  2  0
  8  9  1  0
  9 10  2  0
 10 11  1  0
 10 12  1  0
 12 13  2  0
 13 14  1  0
 13  7  1  0
M  END
>  <Hit>  (472) 
Mpro-x0946_0

>  <Receptor>  (472) 
Mpro-x1249_0

>  <SCORE>  (472) 
-11.6373

>  <SCORE.norm>  (472) 
-0.831237

>  <SCORE.heavy>  (472) 
14

>  <OrigSmiles>  (472) 
C#CCC(=O)Nc1ccc(Cl)cc1Br

>  <SuCOS_Score>  (472) 
0.32321596772542921

>  <Max_SuCOS_Score>  (472) 
0.43802788478530436

>  <Cum_SuCOS_Score>  (472) 
4.9369056525600508

>  <TransFSScore_50nM>  (472) 
0.00097300000000000002

>  <TransFSScore_1uM>  (472) 
0.009613

>  <TransFSScore_10nM>  (472) 
0.0020089999999999999

>  <TransFSScore_200nM>  (472) 
0.001671

>  <TransFSScore>  (472) 
0.0035665000000000002

>  <FeatureSteinScore>  (472) 
0.44705484125671735

>  <XCos_RefMols>  (472) 
x0104_0,x1374_0,x0395_0

>  <XCos_NumHits>  (472) 
3

>  <XCos_Score1>  (472) 
12.3487

>  <XCos_Score2>  (472) 
0.2093

>  <XCos_Score3>  (472) 
0.0169

$$$$
C#CCC(=O)Nc1ccc(Cl)cc1Br
     RDKit          3D

 14 14  0  0  0  0  0  0  0  0999 V2000
   10.5029   -5.6884   25.8326 C   0  0  0  0  0  0  0  0  0  0  0  0
   10.0326   -4.9061   25.0448 C   0  0  0  0  0  0  0  0  0  0  0  0
    9.4614   -3.9551   24.0878 C   0  0  0  0  0  0  0  0  0  0  0  0
    9.9962   -2.5836   24.3563 C   0  0  0  0  0  0  0  0  0  0  0  0
    9.5822   -1.9433   25.3608 O   0  0  0  0  0  0  0  0  0  0  0  0
   10.9723   -2.0078   23.4737 N   0  0  0  0  0  0  0  0  0  0  0  0
   11.3925   -0.6343   23.5420 C   0  0  0  0  0  0  0  0  0  0  0  0
   10.6965    0.2853   24.3495 C   0  0  0  0  0  0  0  0  0  0  0  0
   11.0774    1.6295   24.3876 C   0  0  0  0  0  0  0  0  0  0  0  0
   12.1579    2.0693   23.6190 C   0  0  0  0  0  0  0  0  0  0  0  0
   12.6393    3.7554   23.6679 Cl  0  0  0  0  0  0  0  0  0  0  0  0
   12.8520    1.1677   22.8059 C   0  0  0  0  0  0  0  0  0  0  0  0
   12.4686   -0.1782   22.7534 C   0  0  0  0  0  0  0  0  0  0  0  0
   13.4436   -1.3660   21.5955 Br  0  0  0  0  0  0  0  0  0  0  0  0
  1  2  3  0
  2  3  1  0
  3  4  1  0
  4  5  2  0
  4  6  1  0
  6  7  1  0
  7  8  2  0
  8  9  1  0
  9 10  2  0
 10 11  1  0
 10 12  1  0
 12 13  2  0
 13 14  1  0
 13  7  1  0
M  END
>  <Hit>  (473) 
Mpro-x0946_0

>  <Receptor>  (473) 
Mpro-x1249_0

>  <SCORE>  (473) 
-11.6693

>  <SCORE.norm>  (473) 
-0.83352000000000004

>  <SCORE.heavy>  (473) 
14

>  <OrigSmiles>  (473) 
C#CCC(=O)Nc1ccc(Cl)cc1Br

>  <SuCOS_Score>  (473) 
0.322418230200403

>  <Max_SuCOS_Score>  (473) 
0.43740470322473135

>  <Cum_SuCOS_Score>  (473) 
4.9337453760779102

>  <TransFSScore_50nM>  (473) 
0.001178

>  <TransFSScore_1uM>  (473) 
0.0092069999999999999

>  <TransFSScore_10nM>  (473) 
0.0019980000000000002

>  <TransFSScore_200nM>  (473) 
0.0017930000000000001

>  <TransFSScore>  (473) 
0.0035439999999999998

>  <FeatureSteinScore>  (473) 
0.42794839566896425

>  <XCos_RefMols>  (473) 
x0104_0,x1374_0,x0395_0

>  <XCos_NumHits>  (473) 
3

>  <XCos_Score1>  (473) 
12.1522

>  <XCos_Score2>  (473) 
0.2060

>  <XCos_Score3>  (473) 
0.0169

$$$$
C#CCC(=O)Nc1ccc(Cl)cc1Br
     RDKit          3D

 14 14  0  0  0  0  0  0  0  0999 V2000
   10.4015   -5.6267   25.8824 C   0  0  0  0  0  0  0  0  0  0  0  0
    9.9574   -4.8473   25.0769 C   0  0  0  0  0  0  0  0  0  0  0  0
    9.4174   -3.9005   24.0978 C   0  0  0  0  0  0  0  0  0  0  0  0
    9.9596   -2.5316   24.3647 C   0  0  0  0  0  0  0  0  0  0  0  0
    9.5217   -1.8729   25.3469 O   0  0  0  0  0  0  0  0  0  0  0  0
   10.9696   -1.9791   23.5058 N   0  0  0  0  0  0  0  0  0  0  0  0
   11.4036   -0.6096   23.5689 C   0  0  0  0  0  0  0  0  0  0  0  0
   10.7141    0.3209   24.3694 C   0  0  0  0  0  0  0  0  0  0  0  0
   11.1086    1.6613   24.4023 C   0  0  0  0  0  0  0  0  0  0  0  0
   12.1963    2.0864   23.6355 C   0  0  0  0  0  0  0  0  0  0  0  0
   12.6947    3.7677   23.6780 Cl  0  0  0  0  0  0  0  0  0  0  0  0
   12.8841    1.1738   22.8294 C   0  0  0  0  0  0  0  0  0  0  0  0
   12.4871   -0.1684   22.7821 C   0  0  0  0  0  0  0  0  0  0  0  0
   13.4541   -1.3717   21.6335 Br  0  0  0  0  0  0  0  0  0  0  0  0
  1  2  3  0
  2  3  1  0
  3  4  1  0
  4  5  2  0
  4  6  1  0
  6  7  1  0
  7  8  2  0
  8  9  1  0
  9 10  2  0
 10 11  1  0
 10 12  1  0
 12 13  2  0
 13 14  1  0
 13  7  1  0
M  END
>  <Hit>  (474) 
Mpro-x0946_0

>  <Receptor>  (474) 
Mpro-x1249_0

>  <SCORE>  (474) 
-11.6957

>  <SCORE.norm>  (474) 
-0.83540800000000004

>  <SCORE.heavy>  (474) 
14

>  <OrigSmiles>  (474) 
C#CCC(=O)Nc1ccc(Cl)cc1Br

>  <SuCOS_Score>  (474) 
0.32332102728492201

>  <Max_SuCOS_Score>  (474) 
0.43932360060542031

>  <Cum_SuCOS_Score>  (474) 
4.9549386671756679

>  <TransFSScore_50nM>  (474) 
0.001108

>  <TransFSScore_1uM>  (474) 
0.0093650000000000001

>  <TransFSScore_10nM>  (474) 
0.001954

>  <TransFSScore_200nM>  (474) 
0.001774

>  <TransFSScore>  (474) 
0.00355025

>  <FeatureSteinScore>  (474) 
0.44292176336023192

>  <XCos_RefMols>  (474) 
x0104_0,x1374_0,x0395_0

>  <XCos_NumHits>  (474) 
3

>  <XCos_Score1>  (474) 
12.3160

>  <XCos_Score2>  (474) 
0.2087

>  <XCos_Score3>  (474) 
0.0169

$$$$
C#CCC(=O)Nc1ccc(Cl)cc1Br
     RDKit          3D

 14 14  0  0  0  0  0  0  0  0999 V2000
   10.4398   -5.6098   25.8186 C   0  0  0  0  0  0  0  0  0  0  0  0
    9.9908   -4.8269   25.0191 C   0  0  0  0  0  0  0  0  0  0  0  0
    9.4456   -3.8751   24.0479 C   0  0  0  0  0  0  0  0  0  0  0  0
    9.9807   -2.5056   24.3257 C   0  0  0  0  0  0  0  0  0  0  0  0
    9.5417   -1.8582   25.3149 O   0  0  0  0  0  0  0  0  0  0  0  0
   10.9855   -1.9398   23.4692 N   0  0  0  0  0  0  0  0  0  0  0  0
   11.4119   -0.5685   23.5435 C   0  0  0  0  0  0  0  0  0  0  0  0
   10.7223    0.3498   24.3579 C   0  0  0  0  0  0  0  0  0  0  0  0
   11.1092    1.6921   24.4020 C   0  0  0  0  0  0  0  0  0  0  0  0
   12.1894    2.1313   23.6325 C   0  0  0  0  0  0  0  0  0  0  0  0
   12.6783    3.8150   23.6889 Cl  0  0  0  0  0  0  0  0  0  0  0  0
   12.8772    1.2310   22.8126 C   0  0  0  0  0  0  0  0  0  0  0  0
   12.4877   -0.1129   22.7542 C   0  0  0  0  0  0  0  0  0  0  0  0
   13.4540   -1.2988   21.5871 Br  0  0  0  0  0  0  0  0  0  0  0  0
  1  2  3  0
  2  3  1  0
  3  4  1  0
  4  5  2  0
  4  6  1  0
  6  7  1  0
  7  8  2  0
  8  9  1  0
  9 10  2  0
 10 11  1  0
 10 12  1  0
 12 13  2  0
 13 14  1  0
 13  7  1  0
M  END
>  <Hit>  (475) 
Mpro-x0946_0

>  <Receptor>  (475) 
Mpro-x1249_0

>  <SCORE>  (475) 
-11.7262

>  <SCORE.norm>  (475) 
-0.83758500000000002

>  <SCORE.heavy>  (475) 
14

>  <OrigSmiles>  (475) 
C#CCC(=O)Nc1ccc(Cl)cc1Br

>  <SuCOS_Score>  (475) 
0.32815698570051172

>  <Max_SuCOS_Score>  (475) 
0.4416065174449082

>  <Cum_SuCOS_Score>  (475) 
4.9252995181907044

>  <TransFSScore_50nM>  (475) 
0.0010970000000000001

>  <TransFSScore_1uM>  (475) 
0.0088129999999999997

>  <TransFSScore_10nM>  (475) 
0.0018799999999999999

>  <TransFSScore_200nM>  (475) 
0.001727

>  <TransFSScore>  (475) 
0.0033792499999999999

>  <FeatureSteinScore>  (475) 
0.43598645899175625

>  <XCos_RefMols>  (475) 
x0104_0,x1374_0,x0395_0

>  <XCos_NumHits>  (475) 
3

>  <XCos_Score1>  (475) 
12.2376

>  <XCos_Score2>  (475) 
0.2074

>  <XCos_Score3>  (475) 
0.0169

$$$$
C#CCC(=O)Nc1ccc(Cl)cc1Br
     RDKit          3D

 14 14  0  0  0  0  0  0  0  0999 V2000
   10.2186   -5.3721   26.0001 C   0  0  0  0  0  0  0  0  0  0  0  0
    9.9048   -4.6264   25.1062 C   0  0  0  0  0  0  0  0  0  0  0  0
    9.5240   -3.7200   24.0199 C   0  0  0  0  0  0  0  0  0  0  0  0
   10.1165   -2.3668   24.2584 C   0  0  0  0  0  0  0  0  0  0  0  0
    9.7146   -1.6785   25.2357 O   0  0  0  0  0  0  0  0  0  0  0  0
   11.1334   -1.8627   23.3780 N   0  0  0  0  0  0  0  0  0  0  0  0
   11.6150   -0.5082   23.4142 C   0  0  0  0  0  0  0  0  0  0  0  0
   10.9437    0.4675   24.1753 C   0  0  0  0  0  0  0  0  0  0  0  0
   11.3854    1.7935   24.1811 C   0  0  0  0  0  0  0  0  0  0  0  0
   12.5028    2.1588   23.4263 C   0  0  0  0  0  0  0  0  0  0  0  0
   13.0604    3.8219   23.4349 Cl  0  0  0  0  0  0  0  0  0  0  0  0
   13.1732    1.2009   22.6590 C   0  0  0  0  0  0  0  0  0  0  0  0
   12.7292   -0.1271   22.6388 C   0  0  0  0  0  0  0  0  0  0  0  0
   13.6750   -1.3946   21.5428 Br  0  0  0  0  0  0  0  0  0  0  0  0
  1  2  3  0
  2  3  1  0
  3  4  1  0
  4  5  2  0
  4  6  1  0
  6  7  1  0
  7  8  2  0
  8  9  1  0
  9 10  2  0
 10 11  1  0
 10 12  1  0
 12 13  2  0
 13 14  1  0
 13  7  1  0
M  END
>  <Hit>  (476) 
Mpro-x0946_0

>  <Receptor>  (476) 
Mpro-x0874_0

>  <SCORE>  (476) 
-12.4771

>  <SCORE.norm>  (476) 
-0.89121899999999998

>  <SCORE.heavy>  (476) 
14

>  <OrigSmiles>  (476) 
C#CCC(=O)Nc1ccc(Cl)cc1Br

>  <SuCOS_Score>  (476) 
0.33488641964466326

>  <Max_SuCOS_Score>  (476) 
0.43648323756385826

>  <Cum_SuCOS_Score>  (476) 
4.8697475966479837

>  <TransFSScore_50nM>  (476) 
0.001469

>  <TransFSScore_1uM>  (476) 
0.009528

>  <TransFSScore_10nM>  (476) 
0.0024599999999999999

>  <TransFSScore_200nM>  (476) 
0.001743

>  <TransFSScore>  (476) 
0.0038

>  <FeatureSteinScore>  (476) 
0.40887043023083797

>  <XCos_RefMols>  (476) 
x1374_0,x0104_0,x1093_0,x0395_0

>  <XCos_NumHits>  (476) 
4

>  <XCos_Score1>  (476) 
11.9595

>  <XCos_Score2>  (476) 
0.2027

>  <XCos_Score3>  (476) 
0.0169

$$$$
C#CCC(=O)Nc1ccc(Cl)cc1Br
     RDKit          3D

 14 14  0  0  0  0  0  0  0  0999 V2000
   10.0791   -5.3273   26.2028 C   0  0  0  0  0  0  0  0  0  0  0  0
    9.8608   -4.6301   25.2437 C   0  0  0  0  0  0  0  0  0  0  0  0
    9.5948   -3.7829   24.0783 C   0  0  0  0  0  0  0  0  0  0  0  0
   10.1738   -2.4210   24.2996 C   0  0  0  0  0  0  0  0  0  0  0  0
    9.7536   -1.7179   25.2585 O   0  0  0  0  0  0  0  0  0  0  0  0
   11.1988   -1.9253   23.4238 N   0  0  0  0  0  0  0  0  0  0  0  0
   11.6697   -0.5667   23.4413 C   0  0  0  0  0  0  0  0  0  0  0  0
   11.0060    0.4084   24.2099 C   0  0  0  0  0  0  0  0  0  0  0  0
   11.4366    1.7380   24.1981 C   0  0  0  0  0  0  0  0  0  0  0  0
   12.5351    2.1075   23.4180 C   0  0  0  0  0  0  0  0  0  0  0  0
   13.0788    3.7753   23.4044 Cl  0  0  0  0  0  0  0  0  0  0  0  0
   13.1975    1.1502   22.6431 C   0  0  0  0  0  0  0  0  0  0  0  0
   12.7644   -0.1815   22.6406 C   0  0  0  0  0  0  0  0  0  0  0  0
   13.6978   -1.4483   21.5333 Br  0  0  0  0  0  0  0  0  0  0  0  0
  1  2  3  0
  2  3  1  0
  3  4  1  0
  4  5  2  0
  4  6  1  0
  6  7  1  0
  7  8  2  0
  8  9  1  0
  9 10  2  0
 10 11  1  0
 10 12  1  0
 12 13  2  0
 13 14  1  0
 13  7  1  0
M  END
>  <Hit>  (477) 
Mpro-x0946_0

>  <Receptor>  (477) 
Mpro-x0874_0

>  <SCORE>  (477) 
-12.4879

>  <SCORE.norm>  (477) 
-0.89199399999999995

>  <SCORE.heavy>  (477) 
14

>  <OrigSmiles>  (477) 
C#CCC(=O)Nc1ccc(Cl)cc1Br

>  <SuCOS_Score>  (477) 
0.32872635011563511

>  <Max_SuCOS_Score>  (477) 
0.43267562434741991

>  <Cum_SuCOS_Score>  (477) 
4.8588212707129204

>  <TransFSScore_50nM>  (477) 
0.001351

>  <TransFSScore_1uM>  (477) 
0.0094680000000000007

>  <TransFSScore_10nM>  (477) 
0.0025959999999999998

>  <TransFSScore_200nM>  (477) 
0.001884

>  <TransFSScore>  (477) 
0.00382475

>  <FeatureSteinScore>  (477) 
0.40290779154521955

>  <XCos_RefMols>  (477) 
x1374_0,x0104_0,x0354_0

>  <XCos_NumHits>  (477) 
3

>  <XCos_Score1>  (477) 
11.8446

>  <XCos_Score2>  (477) 
0.1338

>  <XCos_Score3>  (477) 
0.0113

$$$$
C#CCC(=O)Nc1ccc(Cl)cc1Br
     RDKit          3D

 14 14  0  0  0  0  0  0  0  0999 V2000
   10.1308   -5.3278   26.1427 C   0  0  0  0  0  0  0  0  0  0  0  0
    9.8646   -4.6127   25.2092 C   0  0  0  0  0  0  0  0  0  0  0  0
    9.5416   -3.7441   24.0744 C   0  0  0  0  0  0  0  0  0  0  0  0
   10.1256   -2.3842   24.2953 C   0  0  0  0  0  0  0  0  0  0  0  0
    9.7046   -1.6775   25.2512 O   0  0  0  0  0  0  0  0  0  0  0  0
   11.1562   -1.8947   23.4227 N   0  0  0  0  0  0  0  0  0  0  0  0
   11.6329   -0.5382   23.4394 C   0  0  0  0  0  0  0  0  0  0  0  0
   10.9650    0.4433   24.1962 C   0  0  0  0  0  0  0  0  0  0  0  0
   11.4016    1.7710   24.1833 C   0  0  0  0  0  0  0  0  0  0  0  0
   12.5104    2.1321   23.4140 C   0  0  0  0  0  0  0  0  0  0  0  0
   13.0616    3.7974   23.3991 Cl  0  0  0  0  0  0  0  0  0  0  0  0
   13.1773    1.1684   22.6509 C   0  0  0  0  0  0  0  0  0  0  0  0
   12.7382   -0.1614   22.6494 C   0  0  0  0  0  0  0  0  0  0  0  0
   13.6785   -1.4373   21.5584 Br  0  0  0  0  0  0  0  0  0  0  0  0
  1  2  3  0
  2  3  1  0
  3  4  1  0
  4  5  2  0
  4  6  1  0
  6  7  1  0
  7  8  2  0
  8  9  1  0
  9 10  2  0
 10 11  1  0
 10 12  1  0
 12 13  2  0
 13 14  1  0
 13  7  1  0
M  END
>  <Hit>  (478) 
Mpro-x0946_0

>  <Receptor>  (478) 
Mpro-x0874_0

>  <SCORE>  (478) 
-12.5396

>  <SCORE.norm>  (478) 
-0.89568899999999996

>  <SCORE.heavy>  (478) 
14

>  <OrigSmiles>  (478) 
C#CCC(=O)Nc1ccc(Cl)cc1Br

>  <SuCOS_Score>  (478) 
0.33181090624224424

>  <Max_SuCOS_Score>  (478) 
0.43545952064676408

>  <Cum_SuCOS_Score>  (478) 
4.8776508773150589

>  <TransFSScore_50nM>  (478) 
0.0013630000000000001

>  <TransFSScore_1uM>  (478) 
0.0093600000000000003

>  <TransFSScore_10nM>  (478) 
0.0025869999999999999

>  <TransFSScore_200nM>  (478) 
0.001804

>  <TransFSScore>  (478) 
0.0037784999999999997

>  <FeatureSteinScore>  (478) 
0.413156023052967

>  <XCos_RefMols>  (478) 
x1374_0,x0104_0,x0354_0,x0395_0

>  <XCos_NumHits>  (478) 
4

>  <XCos_Score1>  (478) 
11.9656

>  <XCos_Score2>  (478) 
0.2028

>  <XCos_Score3>  (478) 
0.0169

$$$$
C#CCC(=O)Nc1ccc(Cl)cc1Br
     RDKit          3D

 14 14  0  0  0  0  0  0  0  0999 V2000
   10.2647   -5.3884   25.9873 C   0  0  0  0  0  0  0  0  0  0  0  0
    9.9209   -4.6346   25.1114 C   0  0  0  0  0  0  0  0  0  0  0  0
    9.5037   -3.7185   24.0468 C   0  0  0  0  0  0  0  0  0  0  0  0
   10.1039   -2.3674   24.2774 C   0  0  0  0  0  0  0  0  0  0  0  0
    9.6940   -1.6639   25.2405 O   0  0  0  0  0  0  0  0  0  0  0  0
   11.1374   -1.8824   23.4057 N   0  0  0  0  0  0  0  0  0  0  0  0
   11.6298   -0.5316   23.4323 C   0  0  0  0  0  0  0  0  0  0  0  0
   10.9725    0.4522   24.1954 C   0  0  0  0  0  0  0  0  0  0  0  0
   11.4245    1.7748   24.1922 C   0  0  0  0  0  0  0  0  0  0  0  0
   12.5381    2.1285   23.4263 C   0  0  0  0  0  0  0  0  0  0  0  0
   13.1085    3.7874   23.4236 Cl  0  0  0  0  0  0  0  0  0  0  0  0
   13.1944    1.1626   22.6571 C   0  0  0  0  0  0  0  0  0  0  0  0
   12.7401   -0.1621   22.6459 C   0  0  0  0  0  0  0  0  0  0  0  0
   13.6665   -1.4410   21.5467 Br  0  0  0  0  0  0  0  0  0  0  0  0
  1  2  3  0
  2  3  1  0
  3  4  1  0
  4  5  2  0
  4  6  1  0
  6  7  1  0
  7  8  2  0
  8  9  1  0
  9 10  2  0
 10 11  1  0
 10 12  1  0
 12 13  2  0
 13 14  1  0
 13  7  1  0
M  END
>  <Hit>  (479) 
Mpro-x0946_0

>  <Receptor>  (479) 
Mpro-x0874_0

>  <SCORE>  (479) 
-12.557700000000001

>  <SCORE.norm>  (479) 
-0.89697700000000002

>  <SCORE.heavy>  (479) 
14

>  <OrigSmiles>  (479) 
C#CCC(=O)Nc1ccc(Cl)cc1Br

>  <SuCOS_Score>  (479) 
0.3306905177580573

>  <Max_SuCOS_Score>  (479) 
0.43401717179449023

>  <Cum_SuCOS_Score>  (479) 
4.8713864157905391

>  <TransFSScore_50nM>  (479) 
0.0015009999999999999

>  <TransFSScore_1uM>  (479) 
0.0094070000000000004

>  <TransFSScore_10nM>  (479) 
0.0024320000000000001

>  <TransFSScore_200nM>  (479) 
0.0017489999999999999

>  <TransFSScore>  (479) 
0.0037722500000000004

>  <FeatureSteinScore>  (479) 
0.40720030804217622

>  <XCos_RefMols>  (479) 
x1374_0,x0104_0,x0354_0,x0395_0

>  <XCos_NumHits>  (479) 
4

>  <XCos_Score1>  (479) 
11.8887

>  <XCos_Score2>  (479) 
0.2015

>  <XCos_Score3>  (479) 
0.0169

$$$$
C#CCC(=O)[C@@H]1C[C@@H]2CC[C@H]1N2
     RDKit          3D

 12 13  0  0  0  0  0  0  0  0999 V2000
    9.4175   -2.0529   21.5915 C   0  0  0  0  0  0  0  0  0  0  0  0
    9.1869   -2.8894   22.4285 C   0  0  0  0  0  0  0  0  0  0  0  0
    8.9049   -3.9093   23.4497 C   0  0  0  0  0  0  0  0  0  0  0  0
    9.4215   -3.4637   24.7912 C   0  0  0  0  0  0  0  0  0  0  0  0
   10.2358   -2.5529   24.8438 O   0  0  0  0  0  0  0  0  0  0  0  0
    8.9674   -4.1743   26.0526 C   0  0  2  0  0  0  0  0  0  0  0  0
    8.8239   -5.7102   25.9515 C   0  0  0  0  0  0  0  0  0  0  0  0
    7.3773   -5.9116   26.4466 C   0  0  2  0  0  0  0  0  0  0  0  0
    6.4211   -5.4854   25.3171 C   0  0  0  0  0  0  0  0  0  0  0  0
    6.5285   -3.9567   25.3904 C   0  0  0  0  0  0  0  0  0  0  0  0
    7.5500   -3.7761   26.5350 C   0  0  1  0  0  0  0  0  0  0  0  0
    7.2081   -4.8621   27.4405 N   0  0  0  0  0  0  0  0  0  0  0  0
  1  2  3  0
  2  3  1  0
  3  4  1  0
  4  5  2  0
  6  4  1  6
  6  7  1  0
  8  7  1  6
  8  9  1  0
  9 10  1  0
 11 10  1  6
 11 12  1  0
 11  6  1  0
 12  8  1  0
M  END
>  <Hit>  (480) 
Mpro-x0991_0

>  <Receptor>  (480) 
Mpro-x0874_0

>  <SCORE>  (480) 
-2.2816700000000001

>  <SCORE.norm>  (480) 
-0.19014

>  <SCORE.heavy>  (480) 
12

>  <OrigSmiles>  (480) 
C#CCC(=O)[C@@H]1C[C@@H]2CC[C@H]1N2

>  <SuCOS_Score>  (480) 
0.44645147215066516

>  <Max_SuCOS_Score>  (480) 
0.44645147215066516

>  <Cum_SuCOS_Score>  (480) 
2.1426524108645721

>  <TransFSScore_50nM>  (480) 
0.054690000000000003

>  <TransFSScore_1uM>  (480) 
0.22084599999999999

>  <TransFSScore_10nM>  (480) 
0.0047460000000000002

>  <TransFSScore_200nM>  (480) 
0.054774999999999997

>  <TransFSScore>  (480) 
0.083764250000000012

>  <FeatureSteinScore>  (480) 
0.44633426102909673

>  <XCos_RefMols>  (480) 
x1392_0,x0749_0,x1336_0

>  <XCos_NumHits>  (480) 
3

>  <XCos_Score1>  (480) 
9.8082

>  <XCos_Score2>  (480) 
0.0554

>  <XCos_Score3>  (480) 
0.0056

$$$$
C#CCC(=O)[C@@H]1C[C@@H]2CC[C@H]1N2
     RDKit          3D

 12 13  0  0  0  0  0  0  0  0999 V2000
   10.6619   -2.2152   22.8515 C   0  0  0  0  0  0  0  0  0  0  0  0
    9.7237   -2.9543   23.0148 C   0  0  0  0  0  0  0  0  0  0  0  0
    8.5816   -3.8582   23.2159 C   0  0  0  0  0  0  0  0  0  0  0  0
    8.8716   -4.8170   24.3411 C   0  0  0  0  0  0  0  0  0  0  0  0
    9.2429   -5.9491   24.0655 O   0  0  0  0  0  0  0  0  0  0  0  0
    8.5698   -4.4570   25.7847 C   0  0  2  0  0  0  0  0  0  0  0  0
    8.8548   -5.5678   26.8187 C   0  0  0  0  0  0  0  0  0  0  0  0
    7.5277   -5.6087   27.5959 C   0  0  2  0  0  0  0  0  0  0  0  0
    6.4911   -6.3629   26.7475 C   0  0  0  0  0  0  0  0  0  0  0  0
    6.1770   -5.3236   25.6711 C   0  0  0  0  0  0  0  0  0  0  0  0
    7.0886   -4.1490   26.0984 C   0  0  1  0  0  0  0  0  0  0  0  0
    7.0839   -4.2252   27.5484 N   0  0  0  0  0  0  0  0  0  0  0  0
  1  2  3  0
  2  3  1  0
  3  4  1  0
  4  5  2  0
  6  4  1  6
  6  7  1  0
  8  7  1  6
  8  9  1  0
  9 10  1  0
 11 10  1  6
 11 12  1  0
 11  6  1  0
 12  8  1  0
M  END
>  <Hit>  (481) 
Mpro-x0991_0

>  <Receptor>  (481) 
Mpro-x0874_0

>  <SCORE>  (481) 
-2.29955

>  <SCORE.norm>  (481) 
-0.19162899999999999

>  <SCORE.heavy>  (481) 
12

>  <OrigSmiles>  (481) 
C#CCC(=O)[C@@H]1C[C@@H]2CC[C@H]1N2

>  <SuCOS_Score>  (481) 
0.46035492411166673

>  <Max_SuCOS_Score>  (481) 
0.46035492411166673

>  <Cum_SuCOS_Score>  (481) 
2.1699913003261071

>  <TransFSScore_50nM>  (481) 
0.023316

>  <TransFSScore_1uM>  (481) 
0.26208500000000001

>  <TransFSScore_10nM>  (481) 
0.0031900000000000001

>  <TransFSScore_200nM>  (481) 
0.14433399999999999

>  <TransFSScore>  (481) 
0.10823125

>  <FeatureSteinScore>  (481) 
0.39870190059406435

>  <XCos_RefMols>  (481) 
x1392_0

>  <XCos_NumHits>  (481) 
1

>  <XCos_Score1>  (481) 
9.0242

>  <XCos_Score2>  (481) 
0.0510

>  <XCos_Score3>  (481) 
0.0056

$$$$
C#CCC(=O)[C@@H]1C[C@@H]2CC[C@H]1N2
     RDKit          3D

 12 13  0  0  0  0  0  0  0  0999 V2000
   10.8406   -2.2435   23.1780 C   0  0  0  0  0  0  0  0  0  0  0  0
    9.8851   -2.9752   23.2476 C   0  0  0  0  0  0  0  0  0  0  0  0
    8.7199   -3.8683   23.3287 C   0  0  0  0  0  0  0  0  0  0  0  0
    8.9158   -4.8766   24.4308 C   0  0  0  0  0  0  0  0  0  0  0  0
    9.2315   -6.0192   24.1304 O   0  0  0  0  0  0  0  0  0  0  0  0
    8.5850   -4.5445   25.8747 C   0  0  2  0  0  0  0  0  0  0  0  0
    8.7965   -5.6933   26.8846 C   0  0  0  0  0  0  0  0  0  0  0  0
    7.4462   -5.7036   27.6219 C   0  0  2  0  0  0  0  0  0  0  0  0
    6.4073   -6.3934   26.7230 C   0  0  0  0  0  0  0  0  0  0  0  0
    6.1653   -5.3137   25.6679 C   0  0  0  0  0  0  0  0  0  0  0  0
    7.1080   -4.1877   26.1544 C   0  0  1  0  0  0  0  0  0  0  0  0
    7.0572   -4.3031   27.6009 N   0  0  0  0  0  0  0  0  0  0  0  0
  1  2  3  0
  2  3  1  0
  3  4  1  0
  4  5  2  0
  6  4  1  6
  6  7  1  0
  8  7  1  6
  8  9  1  0
  9 10  1  0
 11 10  1  6
 11 12  1  0
 11  6  1  0
 12  8  1  0
M  END
>  <Hit>  (482) 
Mpro-x0991_0

>  <Receptor>  (482) 
Mpro-x0874_0

>  <SCORE>  (482) 
-2.30443

>  <SCORE.norm>  (482) 
-0.19203600000000001

>  <SCORE.heavy>  (482) 
12

>  <OrigSmiles>  (482) 
C#CCC(=O)[C@@H]1C[C@@H]2CC[C@H]1N2

>  <SuCOS_Score>  (482) 
0.45175902159304415

>  <Max_SuCOS_Score>  (482) 
0.45175902159304415

>  <Cum_SuCOS_Score>  (482) 
2.15928742662468

>  <TransFSScore_50nM>  (482) 
0.021468999999999999

>  <TransFSScore_1uM>  (482) 
0.255245

>  <TransFSScore_10nM>  (482) 
0.0031229999999999999

>  <TransFSScore_200nM>  (482) 
0.16394900000000001

>  <TransFSScore>  (482) 
0.1109465

>  <FeatureSteinScore>  (482) 
0.35607010747514106

>  <XCos_RefMols>  (482) 
x1392_0

>  <XCos_NumHits>  (482) 
1

>  <XCos_Score1>  (482) 
8.6890

>  <XCos_Score2>  (482) 
0.0000

>  <XCos_Score3>  (482) 
0.0000

$$$$
C#CCC(=O)[C@@H]1C[C@@H]2CC[C@H]1N2
     RDKit          3D

 12 13  0  0  0  0  0  0  0  0999 V2000
   10.7074   -2.1848   22.8929 C   0  0  0  0  0  0  0  0  0  0  0  0
    9.7735   -2.9327   23.0403 C   0  0  0  0  0  0  0  0  0  0  0  0
    8.6325   -3.8430   23.2176 C   0  0  0  0  0  0  0  0  0  0  0  0
    8.9055   -4.8020   24.3469 C   0  0  0  0  0  0  0  0  0  0  0  0
    9.2786   -5.9348   24.0766 O   0  0  0  0  0  0  0  0  0  0  0  0
    8.5846   -4.4411   25.7861 C   0  0  2  0  0  0  0  0  0  0  0  0
    8.8551   -5.5516   26.8244 C   0  0  0  0  0  0  0  0  0  0  0  0
    7.5177   -5.5914   27.5838 C   0  0  2  0  0  0  0  0  0  0  0  0
    6.4921   -6.3454   26.7220 C   0  0  0  0  0  0  0  0  0  0  0  0
    6.1930   -5.3064   25.6409 C   0  0  0  0  0  0  0  0  0  0  0  0
    7.0995   -4.1322   26.0799 C   0  0  1  0  0  0  0  0  0  0  0  0
    7.0754   -4.2077   27.5297 N   0  0  0  0  0  0  0  0  0  0  0  0
  1  2  3  0
  2  3  1  0
  3  4  1  0
  4  5  2  0
  6  4  1  6
  6  7  1  0
  8  7  1  6
  8  9  1  0
  9 10  1  0
 11 10  1  6
 11 12  1  0
 11  6  1  0
 12  8  1  0
M  END
>  <Hit>  (483) 
Mpro-x0991_0

>  <Receptor>  (483) 
Mpro-x0874_0

>  <SCORE>  (483) 
-2.3095699999999999

>  <SCORE.norm>  (483) 
-0.192464

>  <SCORE.heavy>  (483) 
12

>  <OrigSmiles>  (483) 
C#CCC(=O)[C@@H]1C[C@@H]2CC[C@H]1N2

>  <SuCOS_Score>  (483) 
0.45802421600033594

>  <Max_SuCOS_Score>  (483) 
0.45802421600033594

>  <Cum_SuCOS_Score>  (483) 
2.1878073802807751

>  <TransFSScore_50nM>  (483) 
0.022686000000000001

>  <TransFSScore_1uM>  (483) 
0.26477099999999998

>  <TransFSScore_10nM>  (483) 
0.003287

>  <TransFSScore_200nM>  (483) 
0.15993299999999999

>  <TransFSScore>  (483) 
0.11266924999999998

>  <FeatureSteinScore>  (483) 
0.3928051093133878

>  <XCos_RefMols>  (483) 
x1392_0

>  <XCos_NumHits>  (483) 
1

>  <XCos_Score1>  (483) 
9.0188

>  <XCos_Score2>  (483) 
0.0510

>  <XCos_Score3>  (483) 
0.0056

$$$$
C#CCC(=O)[C@@H]1C[C@@H]2CC[C@H]1N2
     RDKit          3D

 12 13  0  0  0  0  0  0  0  0999 V2000
   10.6903   -2.2082   22.8755 C   0  0  0  0  0  0  0  0  0  0  0  0
    9.7545   -2.9550   23.0166 C   0  0  0  0  0  0  0  0  0  0  0  0
    8.6125   -3.8643   23.1921 C   0  0  0  0  0  0  0  0  0  0  0  0
    8.8776   -4.8151   24.3302 C   0  0  0  0  0  0  0  0  0  0  0  0
    9.2343   -5.9555   24.0702 O   0  0  0  0  0  0  0  0  0  0  0  0
    8.5677   -4.4350   25.7669 C   0  0  2  0  0  0  0  0  0  0  0  0
    8.8632   -5.5252   26.8198 C   0  0  0  0  0  0  0  0  0  0  0  0
    7.5347   -5.5692   27.5943 C   0  0  2  0  0  0  0  0  0  0  0  0
    6.5093   -6.3495   26.7560 C   0  0  0  0  0  0  0  0  0  0  0  0
    6.1856   -5.3318   25.6618 C   0  0  0  0  0  0  0  0  0  0  0  0
    7.0822   -4.1396   26.0720 C   0  0  1  0  0  0  0  0  0  0  0  0
    7.0746   -4.1920   27.5230 N   0  0  0  0  0  0  0  0  0  0  0  0
  1  2  3  0
  2  3  1  0
  3  4  1  0
  4  5  2  0
  6  4  1  6
  6  7  1  0
  8  7  1  6
  8  9  1  0
  9 10  1  0
 11 10  1  6
 11 12  1  0
 11  6  1  0
 12  8  1  0
M  END
>  <Hit>  (484) 
Mpro-x0991_0

>  <Receptor>  (484) 
Mpro-x0874_0

>  <SCORE>  (484) 
-2.3199399999999999

>  <SCORE.norm>  (484) 
-0.193329

>  <SCORE.heavy>  (484) 
12

>  <OrigSmiles>  (484) 
C#CCC(=O)[C@@H]1C[C@@H]2CC[C@H]1N2

>  <SuCOS_Score>  (484) 
0.45761196577235003

>  <Max_SuCOS_Score>  (484) 
0.45761196577235003

>  <Cum_SuCOS_Score>  (484) 
2.1753720915632311

>  <TransFSScore_50nM>  (484) 
0.022662000000000002

>  <TransFSScore_1uM>  (484) 
0.26388200000000001

>  <TransFSScore_10nM>  (484) 
0.0033500000000000001

>  <TransFSScore_200nM>  (484) 
0.15461900000000001

>  <TransFSScore>  (484) 
0.11112825000000001

>  <FeatureSteinScore>  (484) 
0.39311838346761513

>  <XCos_RefMols>  (484) 
x1392_0

>  <XCos_NumHits>  (484) 
1

>  <XCos_Score1>  (484) 
8.9934

>  <XCos_Score2>  (484) 
0.0508

>  <XCos_Score3>  (484) 
0.0056

$$$$
C#CCC(=O)[C@@H]1C[C@@H]2CC[C@H]1N2
     RDKit          3D

 12 13  0  0  0  0  0  0  0  0999 V2000
    9.0984   -2.3723   22.0868 C   0  0  0  0  0  0  0  0  0  0  0  0
    8.8421   -3.3906   22.6792 C   0  0  0  0  0  0  0  0  0  0  0  0
    8.5304   -4.6328   23.4018 C   0  0  0  0  0  0  0  0  0  0  0  0
    9.2006   -4.6367   24.7494 C   0  0  0  0  0  0  0  0  0  0  0  0
   10.1238   -3.8624   24.9583 O   0  0  0  0  0  0  0  0  0  0  0  0
    8.7601   -5.6260   25.8123 C   0  0  2  0  0  0  0  0  0  0  0  0
    7.2347   -5.8305   25.9579 C   0  0  0  0  0  0  0  0  0  0  0  0
    7.0368   -5.5642   27.4641 C   0  0  2  0  0  0  0  0  0  0  0  0
    7.1195   -4.0441   27.6963 C   0  0  0  0  0  0  0  0  0  0  0  0
    8.6288   -3.8001   27.5680 C   0  0  0  0  0  0  0  0  0  0  0  0
    9.1438   -5.2231   27.2582 C   0  0  1  0  0  0  0  0  0  0  0  0
    8.2672   -6.0604   28.0624 N   0  0  0  0  0  0  0  0  0  0  0  0
  1  2  3  0
  2  3  1  0
  3  4  1  0
  4  5  2  0
  6  4  1  6
  6  7  1  0
  8  7  1  6
  8  9  1  0
  9 10  1  0
 11 10  1  6
 11 12  1  0
 11  6  1  0
 12  8  1  0
M  END
>  <Hit>  (485) 
Mpro-x0991_0

>  <Receptor>  (485) 
Mpro-x0305_0

>  <SCORE>  (485) 
-4.8762400000000001

>  <SCORE.norm>  (485) 
-0.40635300000000002

>  <SCORE.heavy>  (485) 
12

>  <OrigSmiles>  (485) 
C#CCC(=O)[C@@H]1C[C@@H]2CC[C@H]1N2

>  <SuCOS_Score>  (485) 
0.50668079611428962

>  <Max_SuCOS_Score>  (485) 
0.50668079611428962

>  <Cum_SuCOS_Score>  (485) 
1.9132338189770248

>  <TransFSScore_50nM>  (485) 
0.0091000000000000004

>  <TransFSScore_1uM>  (485) 
0.30598799999999998

>  <TransFSScore_10nM>  (485) 
0.0092460000000000007

>  <TransFSScore_200nM>  (485) 
0.091986999999999999

>  <TransFSScore>  (485) 
0.10408024999999999

>  <FeatureSteinScore>  (485) 
0.3398596999452585

>  <XCos_RefMols>  (485) 
x1392_0,x1375_0

>  <XCos_NumHits>  (485) 
2

>  <XCos_Score1>  (485) 
7.8902

>  <XCos_Score2>  (485) 
0.0446

>  <XCos_Score3>  (485) 
0.0056

$$$$
C#CCC(=O)[C@@H]1C[C@@H]2CC[C@H]1N2
     RDKit          3D

 12 13  0  0  0  0  0  0  0  0999 V2000
    8.9538   -2.5443   22.1017 C   0  0  0  0  0  0  0  0  0  0  0  0
    8.7419   -3.5737   22.6924 C   0  0  0  0  0  0  0  0  0  0  0  0
    8.4829   -4.8289   23.4135 C   0  0  0  0  0  0  0  0  0  0  0  0
    9.1584   -4.8090   24.7582 C   0  0  0  0  0  0  0  0  0  0  0  0
   10.0928   -4.0424   24.9447 O   0  0  0  0  0  0  0  0  0  0  0  0
    8.7091   -5.7661   25.8465 C   0  0  2  0  0  0  0  0  0  0  0  0
    7.1814   -5.9146   26.0307 C   0  0  0  0  0  0  0  0  0  0  0  0
    7.0287   -5.6189   27.5366 C   0  0  2  0  0  0  0  0  0  0  0  0
    7.1699   -4.0993   27.7428 C   0  0  0  0  0  0  0  0  0  0  0  0
    8.6832   -3.9106   27.5757 C   0  0  0  0  0  0  0  0  0  0  0  0
    9.1408   -5.3554   27.2766 C   0  0  1  0  0  0  0  0  0  0  0  0
    8.2549   -6.1492   28.1140 N   0  0  0  0  0  0  0  0  0  0  0  0
  1  2  3  0
  2  3  1  0
  3  4  1  0
  4  5  2  0
  6  4  1  6
  6  7  1  0
  8  7  1  6
  8  9  1  0
  9 10  1  0
 11 10  1  6
 11 12  1  0
 11  6  1  0
 12  8  1  0
M  END
>  <Hit>  (486) 
Mpro-x0991_0

>  <Receptor>  (486) 
Mpro-x0305_0

>  <SCORE>  (486) 
-4.9399499999999996

>  <SCORE.norm>  (486) 
-0.41166199999999997

>  <SCORE.heavy>  (486) 
12

>  <OrigSmiles>  (486) 
C#CCC(=O)[C@@H]1C[C@@H]2CC[C@H]1N2

>  <SuCOS_Score>  (486) 
0.51171976973046696

>  <Max_SuCOS_Score>  (486) 
0.51171976973046696

>  <Cum_SuCOS_Score>  (486) 
1.8268940427453557

>  <TransFSScore_50nM>  (486) 
0.0096469999999999993

>  <TransFSScore_1uM>  (486) 
0.30964399999999997

>  <TransFSScore_10nM>  (486) 
0.0088760000000000002

>  <TransFSScore_200nM>  (486) 
0.083296999999999996

>  <TransFSScore>  (486) 
0.102866

>  <FeatureSteinScore>  (486) 
0.3236661305379897

>  <XCos_RefMols>  (486) 
x0749_0,x1375_0

>  <XCos_NumHits>  (486) 
2

>  <XCos_Score1>  (486) 
7.7645

>  <XCos_Score2>  (486) 
0.0439

>  <XCos_Score3>  (486) 
0.0056

$$$$
C#CCC(=O)[C@@H]1C[C@@H]2CC[C@H]1N2
     RDKit          3D

 12 13  0  0  0  0  0  0  0  0999 V2000
    8.8945   -2.5987   22.0096 C   0  0  0  0  0  0  0  0  0  0  0  0
    8.6779   -3.6070   22.6341 C   0  0  0  0  0  0  0  0  0  0  0  0
    8.4146   -4.8369   23.3959 C   0  0  0  0  0  0  0  0  0  0  0  0
    9.0448   -4.7526   24.7601 C   0  0  0  0  0  0  0  0  0  0  0  0
    9.9101   -3.9133   24.9662 O   0  0  0  0  0  0  0  0  0  0  0  0
    8.6386   -5.7328   25.8448 C   0  0  2  0  0  0  0  0  0  0  0  0
    7.1185   -5.9155   26.0590 C   0  0  0  0  0  0  0  0  0  0  0  0
    6.9918   -5.6425   27.5716 C   0  0  2  0  0  0  0  0  0  0  0  0
    7.1060   -4.1231   27.7950 C   0  0  0  0  0  0  0  0  0  0  0  0
    8.6112   -3.9006   27.5987 C   0  0  0  0  0  0  0  0  0  0  0  0
    9.0920   -5.3315   27.2708 C   0  0  1  0  0  0  0  0  0  0  0  0
    8.2407   -6.1544   28.1160 N   0  0  0  0  0  0  0  0  0  0  0  0
  1  2  3  0
  2  3  1  0
  3  4  1  0
  4  5  2  0
  6  4  1  6
  6  7  1  0
  8  7  1  6
  8  9  1  0
  9 10  1  0
 11 10  1  1
 11 12  1  0
 11  6  1  0
 12  8  1  0
M  END
>  <Hit>  (487) 
Mpro-x0991_0

>  <Receptor>  (487) 
Mpro-x0305_0

>  <SCORE>  (487) 
-5.0158300000000002

>  <SCORE.norm>  (487) 
-0.41798600000000002

>  <SCORE.heavy>  (487) 
12

>  <OrigSmiles>  (487) 
C#CCC(=O)[C@@H]1C[C@@H]2CC[C@H]1N2

>  <SuCOS_Score>  (487) 
0.51088800438812987

>  <Max_SuCOS_Score>  (487) 
0.51088800438812987

>  <Cum_SuCOS_Score>  (487) 
1.7946855187075244

>  <TransFSScore_50nM>  (487) 
0.0094870000000000006

>  <TransFSScore_1uM>  (487) 
0.31848900000000002

>  <TransFSScore_10nM>  (487) 
0.0088199999999999997

>  <TransFSScore_200nM>  (487) 
0.075733999999999996

>  <TransFSScore>  (487) 
0.10313250000000002

>  <FeatureSteinScore>  (487) 
0.31364594650568406

>  <XCos_RefMols>  (487) 
x0749_0,x1375_0

>  <XCos_NumHits>  (487) 
2

>  <XCos_Score1>  (487) 
7.6845

>  <XCos_Score2>  (487) 
0.0434

>  <XCos_Score3>  (487) 
0.0056

$$$$
C#CCC(=O)[C@@H]1C[C@@H]2CC[C@H]1N2
     RDKit          3D

 12 13  0  0  0  0  0  0  0  0999 V2000
    8.8663   -2.5677   22.0651 C   0  0  0  0  0  0  0  0  0  0  0  0
    8.6822   -3.5972   22.6650 C   0  0  0  0  0  0  0  0  0  0  0  0
    8.4584   -4.8529   23.3968 C   0  0  0  0  0  0  0  0  0  0  0  0
    9.1028   -4.7889   24.7554 C   0  0  0  0  0  0  0  0  0  0  0  0
    9.9963   -3.9778   24.9538 O   0  0  0  0  0  0  0  0  0  0  0  0
    8.6746   -5.7554   25.8439 C   0  0  2  0  0  0  0  0  0  0  0  0
    7.1505   -5.9229   26.0409 C   0  0  0  0  0  0  0  0  0  0  0  0
    7.0076   -5.6349   27.5493 C   0  0  2  0  0  0  0  0  0  0  0  0
    7.1324   -4.1145   27.7602 C   0  0  0  0  0  0  0  0  0  0  0  0
    8.6419   -3.9071   27.5806 C   0  0  0  0  0  0  0  0  0  0  0  0
    9.1140   -5.3451   27.2717 C   0  0  1  0  0  0  0  0  0  0  0  0
    8.2451   -6.1526   28.1137 N   0  0  0  0  0  0  0  0  0  0  0  0
  1  2  3  0
  2  3  1  0
  3  4  1  0
  4  5  2  0
  6  4  1  6
  6  7  1  0
  8  7  1  6
  8  9  1  0
  9 10  1  0
 11 10  1  6
 11 12  1  0
 11  6  1  0
 12  8  1  0
M  END
>  <Hit>  (488) 
Mpro-x0991_0

>  <Receptor>  (488) 
Mpro-x0305_0

>  <SCORE>  (488) 
-5.0388900000000003

>  <SCORE.norm>  (488) 
-0.419908

>  <SCORE.heavy>  (488) 
12

>  <OrigSmiles>  (488) 
C#CCC(=O)[C@@H]1C[C@@H]2CC[C@H]1N2

>  <SuCOS_Score>  (488) 
0.50937612050859848

>  <Max_SuCOS_Score>  (488) 
0.50937612050859848

>  <Cum_SuCOS_Score>  (488) 
1.801524422366644

>  <TransFSScore_50nM>  (488) 
0.0096360000000000005

>  <TransFSScore_1uM>  (488) 
0.31421100000000002

>  <TransFSScore_10nM>  (488) 
0.0088489999999999992

>  <TransFSScore_200nM>  (488) 
0.080423999999999995

>  <TransFSScore>  (488) 
0.10328

>  <FeatureSteinScore>  (488) 
0.31547793512636307

>  <XCos_RefMols>  (488) 
x0749_0,x1375_0

>  <XCos_NumHits>  (488) 
2

>  <XCos_Score1>  (488) 
7.7092

>  <XCos_Score2>  (488) 
0.0436

>  <XCos_Score3>  (488) 
0.0056

$$$$
C#CCC(=O)[C@@H]1C[C@@H]2CC[C@H]1N2
     RDKit          3D

 12 13  0  0  0  0  0  0  0  0999 V2000
    8.8283   -2.5960   22.0024 C   0  0  0  0  0  0  0  0  0  0  0  0
    8.6349   -3.6086   22.6275 C   0  0  0  0  0  0  0  0  0  0  0  0
    8.3992   -4.8443   23.3891 C   0  0  0  0  0  0  0  0  0  0  0  0
    9.0153   -4.7407   24.7583 C   0  0  0  0  0  0  0  0  0  0  0  0
    9.8596   -3.8814   24.9687 O   0  0  0  0  0  0  0  0  0  0  0  0
    8.6216   -5.7258   25.8433 C   0  0  2  0  0  0  0  0  0  0  0  0
    7.1040   -5.9244   26.0606 C   0  0  0  0  0  0  0  0  0  0  0  0
    6.9776   -5.6537   27.5737 C   0  0  2  0  0  0  0  0  0  0  0  0
    7.0765   -4.1333   27.7978 C   0  0  0  0  0  0  0  0  0  0  0  0
    8.5789   -3.8951   27.5984 C   0  0  0  0  0  0  0  0  0  0  0  0
    9.0739   -5.3207   27.2686 C   0  0  1  0  0  0  0  0  0  0  0  0
    8.2330   -6.1528   28.1151 N   0  0  0  0  0  0  0  0  0  0  0  0
  1  2  3  0
  2  3  1  0
  3  4  1  0
  4  5  2  0
  6  4  1  6
  6  7  1  0
  8  7  1  6
  8  9  1  0
  9 10  1  0
 11 10  1  1
 11 12  1  0
 11  6  1  0
 12  8  1  0
M  END
>  <Hit>  (489) 
Mpro-x0991_0

>  <Receptor>  (489) 
Mpro-x0305_0

>  <SCORE>  (489) 
-5.0389299999999997

>  <SCORE.norm>  (489) 
-0.41991099999999998

>  <SCORE.heavy>  (489) 
12

>  <OrigSmiles>  (489) 
C#CCC(=O)[C@@H]1C[C@@H]2CC[C@H]1N2

>  <SuCOS_Score>  (489) 
0.51014961653085955

>  <Max_SuCOS_Score>  (489) 
0.51014961653085955

>  <Cum_SuCOS_Score>  (489) 
1.7854030636062583

>  <TransFSScore_50nM>  (489) 
0.0095259999999999997

>  <TransFSScore_1uM>  (489) 
0.31786300000000001

>  <TransFSScore_10nM>  (489) 
0.0085190000000000005

>  <TransFSScore_200nM>  (489) 
0.073402999999999996

>  <TransFSScore>  (489) 
0.10232775

>  <FeatureSteinScore>  (489) 
0.31184965266642467

>  <XCos_RefMols>  (489) 
x0749_0,x1375_0

>  <XCos_NumHits>  (489) 
2

>  <XCos_Score1>  (489) 
7.6569

>  <XCos_Score2>  (489) 
0.0433

>  <XCos_Score3>  (489) 
0.0056

$$$$
C#CCC(=O)c1cc(Cl)cc(Br)c1
     RDKit          3D

 13 13  0  0  0  0  0  0  0  0999 V2000
    9.5051    6.1603   22.7485 C   0  0  0  0  0  0  0  0  0  0  0  0
   10.5965    6.0732   23.2530 C   0  0  0  0  0  0  0  0  0  0  0  0
   11.9239    5.9648   23.8667 C   0  0  0  0  0  0  0  0  0  0  0  0
   12.7023    4.8500   23.2262 C   0  0  0  0  0  0  0  0  0  0  0  0
   13.6836    5.1573   22.4954 O   0  0  0  0  0  0  0  0  0  0  0  0
   12.3720    3.4126   23.4433 C   0  0  0  0  0  0  0  0  0  0  0  0
   11.2677    3.0208   24.2265 C   0  0  0  0  0  0  0  0  0  0  0  0
   10.9844    1.6635   24.4203 C   0  0  0  0  0  0  0  0  0  0  0  0
    9.6110    1.1879   25.4029 Cl  0  0  0  0  0  0  0  0  0  0  0  0
   11.7921    0.6841   23.8319 C   0  0  0  0  0  0  0  0  0  0  0  0
   12.8869    1.0608   23.0477 C   0  0  0  0  0  0  0  0  0  0  0  0
   13.9844   -0.2664   22.2013 Br  0  0  0  0  0  0  0  0  0  0  0  0
   13.1781    2.4152   22.8606 C   0  0  0  0  0  0  0  0  0  0  0  0
  1  2  3  0
  2  3  1  0
  3  4  1  0
  4  5  2  0
  4  6  1  0
  6  7  2  0
  7  8  1  0
  8  9  1  0
  8 10  2  0
 10 11  1  0
 11 12  1  0
 11 13  2  0
 13  6  1  0
M  END
>  <Hit>  (490) 
Mpro-x0946_0

>  <Receptor>  (490) 
Mpro-x0874_0

>  <SCORE>  (490) 
-8.2327600000000007

>  <SCORE.norm>  (490) 
-0.63328899999999999

>  <SCORE.heavy>  (490) 
13

>  <OrigSmiles>  (490) 
C#CCC(=O)c1cc(Cl)cc(Br)c1

>  <SuCOS_Score>  (490) 
0.62626803643899243

>  <Max_SuCOS_Score>  (490) 
0.62626803643899243

>  <Cum_SuCOS_Score>  (490) 
3.6212091877858037

>  <TransFSScore_50nM>  (490) 
0.060061999999999997

>  <TransFSScore_1uM>  (490) 
0.036028999999999999

>  <TransFSScore_10nM>  (490) 
0.0033609999999999998

>  <TransFSScore_200nM>  (490) 
0.033790000000000001

>  <TransFSScore>  (490) 
0.0333105

>  <FeatureSteinScore>  (490) 
0.48619702086941091

>  <XCos_RefMols>  (490) 
x0195_0

>  <XCos_NumHits>  (490) 
1

>  <XCos_Score1>  (490) 
9.6268

>  <XCos_Score2>  (490) 
0.1632

>  <XCos_Score3>  (490) 
0.0169

$$$$
C#CCC(=O)c1cc(Cl)cc(Br)c1
     RDKit          3D

 13 13  0  0  0  0  0  0  0  0999 V2000
    9.5186    6.2365   22.8447 C   0  0  0  0  0  0  0  0  0  0  0  0
   10.5971    6.0873   23.3622 C   0  0  0  0  0  0  0  0  0  0  0  0
   11.9086    5.9079   23.9931 C   0  0  0  0  0  0  0  0  0  0  0  0
   12.6732    4.8156   23.2993 C   0  0  0  0  0  0  0  0  0  0  0  0
   13.6487    5.1469   22.5712 O   0  0  0  0  0  0  0  0  0  0  0  0
   12.3362    3.3725   23.4611 C   0  0  0  0  0  0  0  0  0  0  0  0
   11.2083    2.9576   24.1974 C   0  0  0  0  0  0  0  0  0  0  0  0
   10.9189    1.5953   24.3397 C   0  0  0  0  0  0  0  0  0  0  0  0
    9.5160    1.0907   25.2644 Cl  0  0  0  0  0  0  0  0  0  0  0  0
   11.7441    0.6339   23.7460 C   0  0  0  0  0  0  0  0  0  0  0  0
   12.8625    1.0337   23.0079 C   0  0  0  0  0  0  0  0  0  0  0  0
   13.9852   -0.2676   22.1543 Br  0  0  0  0  0  0  0  0  0  0  0  0
   13.1595    2.3929   22.8723 C   0  0  0  0  0  0  0  0  0  0  0  0
  1  2  3  0
  2  3  1  0
  3  4  1  0
  4  5  2  0
  4  6  1  0
  6  7  2  0
  7  8  1  0
  8  9  1  0
  8 10  2  0
 10 11  1  0
 11 12  1  0
 11 13  2  0
 13  6  1  0
M  END
>  <Hit>  (491) 
Mpro-x0946_0

>  <Receptor>  (491) 
Mpro-x0874_0

>  <SCORE>  (491) 
-8.2492099999999997

>  <SCORE.norm>  (491) 
-0.63455499999999998

>  <SCORE.heavy>  (491) 
13

>  <OrigSmiles>  (491) 
C#CCC(=O)c1cc(Cl)cc(Br)c1

>  <SuCOS_Score>  (491) 
0.63058024495698339

>  <Max_SuCOS_Score>  (491) 
0.63058024495698339

>  <Cum_SuCOS_Score>  (491) 
3.6817406822684156

>  <TransFSScore_50nM>  (491) 
0.069055000000000005

>  <TransFSScore_1uM>  (491) 
0.037457999999999998

>  <TransFSScore_10nM>  (491) 
0.0034269999999999999

>  <TransFSScore_200nM>  (491) 
0.042042999999999997

>  <TransFSScore>  (491) 
0.037995749999999995

>  <FeatureSteinScore>  (491) 
0.49676430922559589

>  <XCos_RefMols>  (491) 
x0195_0

>  <XCos_NumHits>  (491) 
1

>  <XCos_Score1>  (491) 
9.7183

>  <XCos_Score2>  (491) 
0.2745

>  <XCos_Score3>  (491) 
0.0282

$$$$
C#CCC(=O)c1cc(Cl)cc(Br)c1
     RDKit          3D

 13 13  0  0  0  0  0  0  0  0999 V2000
    9.5515    6.1789   22.8463 C   0  0  0  0  0  0  0  0  0  0  0  0
   10.6354    6.0813   23.3649 C   0  0  0  0  0  0  0  0  0  0  0  0
   11.9548    5.9641   23.9940 C   0  0  0  0  0  0  0  0  0  0  0  0
   12.7441    4.8630   23.3434 C   0  0  0  0  0  0  0  0  0  0  0  0
   13.7469    5.1847   22.6488 O   0  0  0  0  0  0  0  0  0  0  0  0
   12.3997    3.4222   23.5099 C   0  0  0  0  0  0  0  0  0  0  0  0
   11.2719    3.0154   24.2509 C   0  0  0  0  0  0  0  0  0  0  0  0
   10.9756    1.6551   24.3977 C   0  0  0  0  0  0  0  0  0  0  0  0
    9.5729    1.1605   25.3282 Cl  0  0  0  0  0  0  0  0  0  0  0  0
   11.7937    0.6876   23.8039 C   0  0  0  0  0  0  0  0  0  0  0  0
   12.9119    1.0793   23.0612 C   0  0  0  0  0  0  0  0  0  0  0  0
   14.0247   -0.2303   22.2076 Br  0  0  0  0  0  0  0  0  0  0  0  0
   13.2158    2.4366   22.9211 C   0  0  0  0  0  0  0  0  0  0  0  0
  1  2  3  0
  2  3  1  0
  3  4  1  0
  4  5  2  0
  4  6  1  0
  6  7  2  0
  7  8  1  0
  8  9  1  0
  8 10  2  0
 10 11  1  0
 11 12  1  0
 11 13  2  0
 13  6  1  0
M  END
>  <Hit>  (492) 
Mpro-x0946_0

>  <Receptor>  (492) 
Mpro-x0874_0

>  <SCORE>  (492) 
-8.2544000000000004

>  <SCORE.norm>  (492) 
-0.63495400000000002

>  <SCORE.heavy>  (492) 
13

>  <OrigSmiles>  (492) 
C#CCC(=O)c1cc(Cl)cc(Br)c1

>  <SuCOS_Score>  (492) 
0.6206363027156967

>  <Max_SuCOS_Score>  (492) 
0.6206363027156967

>  <Cum_SuCOS_Score>  (492) 
3.5992423583344504

>  <TransFSScore_50nM>  (492) 
0.062848000000000001

>  <TransFSScore_1uM>  (492) 
0.034991000000000001

>  <TransFSScore_10nM>  (492) 
0.0036809999999999998

>  <TransFSScore_200nM>  (492) 
0.034444000000000002

>  <TransFSScore>  (492) 
0.033991000000000007

>  <FeatureSteinScore>  (492) 
0.47805833253972069

>  <XCos_RefMols>  (492) 
x0195_0

>  <XCos_NumHits>  (492) 
1

>  <XCos_Score1>  (492) 
9.5404

>  <XCos_Score2>  (492) 
0.1617

>  <XCos_Score3>  (492) 
0.0169

$$$$
C#CCC(=O)c1cc(Cl)cc(Br)c1
     RDKit          3D

 13 13  0  0  0  0  0  0  0  0999 V2000
    9.5347    6.1881   22.8225 C   0  0  0  0  0  0  0  0  0  0  0  0
   10.6204    6.0692   23.3328 C   0  0  0  0  0  0  0  0  0  0  0  0
   11.9419    5.9269   23.9523 C   0  0  0  0  0  0  0  0  0  0  0  0
   12.7104    4.8198   23.2871 C   0  0  0  0  0  0  0  0  0  0  0  0
   13.6942    5.1348   22.5628 O   0  0  0  0  0  0  0  0  0  0  0  0
   12.3678    3.3809   23.4725 C   0  0  0  0  0  0  0  0  0  0  0  0
   11.2522    2.9818   24.2358 C   0  0  0  0  0  0  0  0  0  0  0  0
   10.9573    1.6232   24.3999 C   0  0  0  0  0  0  0  0  0  0  0  0
    9.5700    1.1384   25.3581 Cl  0  0  0  0  0  0  0  0  0  0  0  0
   11.7646    0.6496   23.8013 C   0  0  0  0  0  0  0  0  0  0  0  0
   12.8706    1.0336   23.0366 C   0  0  0  0  0  0  0  0  0  0  0  0
   13.9680   -0.2848   22.1764 Br  0  0  0  0  0  0  0  0  0  0  0  0
   13.1732    2.3892   22.8791 C   0  0  0  0  0  0  0  0  0  0  0  0
  1  2  3  0
  2  3  1  0
  3  4  1  0
  4  5  2  0
  4  6  1  0
  6  7  2  0
  7  8  1  0
  8  9  1  0
  8 10  2  0
 10 11  1  0
 11 12  1  0
 11 13  2  0
 13  6  1  0
M  END
>  <Hit>  (493) 
Mpro-x0946_0

>  <Receptor>  (493) 
Mpro-x0874_0

>  <SCORE>  (493) 
-8.28627

>  <SCORE.norm>  (493) 
-0.637405

>  <SCORE.heavy>  (493) 
13

>  <OrigSmiles>  (493) 
C#CCC(=O)c1cc(Cl)cc(Br)c1

>  <SuCOS_Score>  (493) 
0.62733854851608828

>  <Max_SuCOS_Score>  (493) 
0.62733854851608828

>  <Cum_SuCOS_Score>  (493) 
3.656999743161605

>  <TransFSScore_50nM>  (493) 
0.065433000000000005

>  <TransFSScore_1uM>  (493) 
0.036013000000000003

>  <TransFSScore_10nM>  (493) 
0.0037299999999999998

>  <TransFSScore_200nM>  (493) 
0.038095999999999998

>  <TransFSScore>  (493) 
0.035818000000000003

>  <FeatureSteinScore>  (493) 
0.48925243587112555

>  <XCos_RefMols>  (493) 
x0195_0

>  <XCos_NumHits>  (493) 
1

>  <XCos_Score1>  (493) 
9.6477

>  <XCos_Score2>  (493) 
0.2180

>  <XCos_Score3>  (493) 
0.0226

$$$$
C#CCC(=O)c1ccc(Cl)cc1Br
     RDKit          3D

 13 13  0  0  0  0  0  0  0  0999 V2000
    7.5861    0.3862   18.3467 C   0  0  0  0  0  0  0  0  0  0  0  0
    7.4047   -0.2935   19.3258 C   0  0  0  0  0  0  0  0  0  0  0  0
    7.1822   -1.1198   20.5163 C   0  0  0  0  0  0  0  0  0  0  0  0
    8.4266   -1.1651   21.3550 C   0  0  0  0  0  0  0  0  0  0  0  0
    8.9340   -2.2885   21.6183 O   0  0  0  0  0  0  0  0  0  0  0  0
    9.0895    0.0777   21.8278 C   0  0  0  0  0  0  0  0  0  0  0  0
    8.3392    1.2660   21.9224 C   0  0  0  0  0  0  0  0  0  0  0  0
    8.9365    2.4593   22.3350 C   0  0  0  0  0  0  0  0  0  0  0  0
   10.2904    2.4797   22.6737 C   0  0  0  0  0  0  0  0  0  0  0  0
   11.0395    3.9759   23.2006 Cl  0  0  0  0  0  0  0  0  0  0  0  0
   11.0496    1.3087   22.5928 C   0  0  0  0  0  0  0  0  0  0  0  0
   10.4645    0.1098   22.1632 C   0  0  0  0  0  0  0  0  0  0  0  0
   11.5890   -1.4520   22.0679 Br  0  0  0  0  0  0  0  0  0  0  0  0
  1  2  3  0
  2  3  1  0
  3  4  1  0
  4  5  2  0
  4  6  1  0
  6  7  2  0
  7  8  1  0
  8  9  2  0
  9 10  1  0
  9 11  1  0
 11 12  2  0
 12 13  1  0
 12  6  1  0
M  END
>  <Hit>  (494) 
Mpro-x0946_0

>  <Receptor>  (494) 
Mpro-x0387_0

>  <SCORE>  (494) 
-5.6444400000000003

>  <SCORE.norm>  (494) 
-0.43418800000000002

>  <SCORE.heavy>  (494) 
13

>  <OrigSmiles>  (494) 
C#CCC(=O)c1ccc(Cl)cc1Br

>  <SuCOS_Score>  (494) 
0.16865446827378944

>  <Max_SuCOS_Score>  (494) 
0.33810239450719992

>  <Cum_SuCOS_Score>  (494) 
3.7928043714248911

>  <TransFSScore_50nM>  (494) 
0.022440000000000002

>  <TransFSScore_1uM>  (494) 
0.017786

>  <TransFSScore_10nM>  (494) 
0.0032239999999999999

>  <TransFSScore_200nM>  (494) 
0.084182000000000007

>  <TransFSScore>  (494) 
0.031907999999999999

>  <FeatureSteinScore>  (494) 
0.28581579917644584

>  <XCos_RefMols>  (494) 
x1093_0

>  <XCos_NumHits>  (494) 
1

>  <XCos_Score1>  (494) 
8.6661

>  <XCos_Score2>  (494) 
0.0000

>  <XCos_Score3>  (494) 
0.0000

$$$$
C#CCC(=O)c1ccc(Cl)cc1Br
     RDKit          3D

 13 13  0  0  0  0  0  0  0  0999 V2000
    7.3094    0.7586   17.9936 C   0  0  0  0  0  0  0  0  0  0  0  0
    7.1805    0.1115   19.0025 C   0  0  0  0  0  0  0  0  0  0  0  0
    7.0246   -0.6742   20.2306 C   0  0  0  0  0  0  0  0  0  0  0  0
    8.3268   -0.7346   20.9753 C   0  0  0  0  0  0  0  0  0  0  0  0
    8.9286   -1.8400   21.0459 O   0  0  0  0  0  0  0  0  0  0  0  0
    8.9346    0.4808   21.5759 C   0  0  0  0  0  0  0  0  0  0  0  0
    8.1748    1.6642   21.6550 C   0  0  0  0  0  0  0  0  0  0  0  0
    8.7237    2.8334   22.1866 C   0  0  0  0  0  0  0  0  0  0  0  0
   10.0363    2.8336   22.6611 C   0  0  0  0  0  0  0  0  0  0  0  0
   10.7236    4.2992   23.3371 Cl  0  0  0  0  0  0  0  0  0  0  0  0
   10.8034    1.6668   22.5973 C   0  0  0  0  0  0  0  0  0  0  0  0
   10.2685    0.4927   22.0498 C   0  0  0  0  0  0  0  0  0  0  0  0
   11.4018   -1.0645   21.9887 Br  0  0  0  0  0  0  0  0  0  0  0  0
  1  2  3  0
  2  3  1  0
  3  4  1  0
  4  5  2  0
  4  6  1  0
  6  7  2  0
  7  8  1  0
  8  9  2  0
  9 10  1  0
  9 11  1  0
 11 12  2  0
 12 13  1  0
 12  6  1  0
M  END
>  <Hit>  (495) 
Mpro-x0946_0

>  <Receptor>  (495) 
Mpro-x0387_0

>  <SCORE>  (495) 
-6.1976399999999998

>  <SCORE.norm>  (495) 
-0.476742

>  <SCORE.heavy>  (495) 
13

>  <OrigSmiles>  (495) 
C#CCC(=O)c1ccc(Cl)cc1Br

>  <SuCOS_Score>  (495) 
0.16876788322792416

>  <Max_SuCOS_Score>  (495) 
0.33027849068519677

>  <Cum_SuCOS_Score>  (495) 
3.6096317620275213

>  <TransFSScore_50nM>  (495) 
0.018442

>  <TransFSScore_1uM>  (495) 
0.018724000000000001

>  <TransFSScore_10nM>  (495) 
0.00265

>  <TransFSScore_200nM>  (495) 
0.046871999999999997

>  <TransFSScore>  (495) 
0.021672

>  <FeatureSteinScore>  (495) 
0.22097243430703348

>  <XCos_RefMols>  (495) 
x1093_0

>  <XCos_NumHits>  (495) 
1

>  <XCos_Score1>  (495) 
8.2857

>  <XCos_Score2>  (495) 
0.0000

>  <XCos_Score3>  (495) 
0.0000

$$$$
C#CCC(=O)c1ccc(Cl)cc1Br
     RDKit          3D

 13 13  0  0  0  0  0  0  0  0999 V2000
    7.4893    0.4341   18.2359 C   0  0  0  0  0  0  0  0  0  0  0  0
    7.3271   -0.2118   19.2409 C   0  0  0  0  0  0  0  0  0  0  0  0
    7.1287   -0.9984   20.4622 C   0  0  0  0  0  0  0  0  0  0  0  0
    8.4151   -1.0952   21.2303 C   0  0  0  0  0  0  0  0  0  0  0  0
    8.9266   -2.2338   21.4060 O   0  0  0  0  0  0  0  0  0  0  0  0
    9.1119    0.1169   21.7332 C   0  0  0  0  0  0  0  0  0  0  0  0
    8.4345    1.3518   21.7316 C   0  0  0  0  0  0  0  0  0  0  0  0
    9.0683    2.5169   22.1697 C   0  0  0  0  0  0  0  0  0  0  0  0
   10.3847    2.4625   22.6302 C   0  0  0  0  0  0  0  0  0  0  0  0
   11.1787    3.9236   23.1891 Cl  0  0  0  0  0  0  0  0  0  0  0  0
   11.0708    1.2447   22.6459 C   0  0  0  0  0  0  0  0  0  0  0  0
   10.4503    0.0728   22.1921 C   0  0  0  0  0  0  0  0  0  0  0  0
   11.4755   -1.5582   22.2357 Br  0  0  0  0  0  0  0  0  0  0  0  0
  1  2  3  0
  2  3  1  0
  3  4  1  0
  4  5  2  0
  4  6  1  0
  6  7  2  0
  7  8  1  0
  8  9  2  0
  9 10  1  0
  9 11  1  0
 11 12  2  0
 12 13  1  0
 12  6  1  0
M  END
>  <Hit>  (496) 
Mpro-x0946_0

>  <Receptor>  (496) 
Mpro-x0387_0

>  <SCORE>  (496) 
-6.3721300000000003

>  <SCORE.norm>  (496) 
-0.49016399999999999

>  <SCORE.heavy>  (496) 
13

>  <OrigSmiles>  (496) 
C#CCC(=O)c1ccc(Cl)cc1Br

>  <SuCOS_Score>  (496) 
0.1685433737355907

>  <Max_SuCOS_Score>  (496) 
0.34540462955977708

>  <Cum_SuCOS_Score>  (496) 
3.8338503493520717

>  <TransFSScore_50nM>  (496) 
0.026633

>  <TransFSScore_1uM>  (496) 
0.017391

>  <TransFSScore_10nM>  (496) 
0.0026210000000000001

>  <TransFSScore_200nM>  (496) 
0.10644099999999999

>  <TransFSScore>  (496) 
0.0382715

>  <FeatureSteinScore>  (496) 
0.27936884331874728

>  <XCos_RefMols>  (496) 
x1093_0

>  <XCos_NumHits>  (496) 
1

>  <XCos_Score1>  (496) 
8.6363

>  <XCos_Score2>  (496) 
0.0000

>  <XCos_Score3>  (496) 
0.0000

$$$$
C#CCC(=O)c1ccc(Cl)cc1Br
     RDKit          3D

 13 13  0  0  0  0  0  0  0  0999 V2000
    8.4851   -0.2018   19.3239 C   0  0  0  0  0  0  0  0  0  0  0  0
    8.7068   -0.5595   20.4537 C   0  0  0  0  0  0  0  0  0  0  0  0
    8.9750   -0.9956   21.8276 C   0  0  0  0  0  0  0  0  0  0  0  0
   10.4531   -0.9995   22.0903 C   0  0  0  0  0  0  0  0  0  0  0  0
   11.0809   -2.0870   21.9801 O   0  0  0  0  0  0  0  0  0  0  0  0
   11.1859    0.2499   22.4212 C   0  0  0  0  0  0  0  0  0  0  0  0
   10.4595    1.3939   22.8052 C   0  0  0  0  0  0  0  0  0  0  0  0
   11.1133    2.5937   23.0949 C   0  0  0  0  0  0  0  0  0  0  0  0
   12.5052    2.6641   23.0196 C   0  0  0  0  0  0  0  0  0  0  0  0
   13.3281    4.1680   23.3921 Cl  0  0  0  0  0  0  0  0  0  0  0  0
   13.2437    1.5371   22.6472 C   0  0  0  0  0  0  0  0  0  0  0  0
   12.5966    0.3332   22.3372 C   0  0  0  0  0  0  0  0  0  0  0  0
   13.6921   -1.1651   21.8194 Br  0  0  0  0  0  0  0  0  0  0  0  0
  1  2  3  0
  2  3  1  0
  3  4  1  0
  4  5  2  0
  4  6  1  0
  6  7  2  0
  7  8  1  0
  8  9  2  0
  9 10  1  0
  9 11  1  0
 11 12  2  0
 12 13  1  0
 12  6  1  0
M  END
>  <Hit>  (497) 
Mpro-x0946_0

>  <Receptor>  (497) 
Mpro-x0874_0

>  <SCORE>  (497) 
-8.9249200000000002

>  <SCORE.norm>  (497) 
-0.68653200000000003

>  <SCORE.heavy>  (497) 
13

>  <OrigSmiles>  (497) 
C#CCC(=O)c1ccc(Cl)cc1Br

>  <SuCOS_Score>  (497) 
0.35930083293647469

>  <Max_SuCOS_Score>  (497) 
0.37269104029973704

>  <Cum_SuCOS_Score>  (497) 
4.3841535457536169

>  <TransFSScore_50nM>  (497) 
0.038115999999999997

>  <TransFSScore_1uM>  (497) 
0.054077

>  <TransFSScore_10nM>  (497) 
0.00164

>  <TransFSScore_200nM>  (497) 
0.059790999999999997

>  <TransFSScore>  (497) 
0.038405999999999996

>  <FeatureSteinScore>  (497) 
0.46350371101243065

>  <XCos_RefMols>  (497) 
x1093_0,x0104_0,x1077_0

>  <XCos_NumHits>  (497) 
3

>  <XCos_Score1>  (497) 
10.0914

>  <XCos_Score2>  (497) 
0.1140

>  <XCos_Score3>  (497) 
0.0113

$$$$
C#CCC(=O)c1ccc(Cl)cc1Br
     RDKit          3D

 13 13  0  0  0  0  0  0  0  0999 V2000
    8.5374   -0.2002   19.4597 C   0  0  0  0  0  0  0  0  0  0  0  0
    8.7876   -0.6572   20.5469 C   0  0  0  0  0  0  0  0  0  0  0  0
    9.0905   -1.2143   21.8689 C   0  0  0  0  0  0  0  0  0  0  0  0
   10.5682   -1.1581   22.1281 C   0  0  0  0  0  0  0  0  0  0  0  0
   11.2429   -2.2145   21.9950 O   0  0  0  0  0  0  0  0  0  0  0  0
   11.2463    0.1157   22.4821 C   0  0  0  0  0  0  0  0  0  0  0  0
   10.4737    1.2096   22.9185 C   0  0  0  0  0  0  0  0  0  0  0  0
   11.0744    2.4311   23.2315 C   0  0  0  0  0  0  0  0  0  0  0  0
   12.4590    2.5733   23.1274 C   0  0  0  0  0  0  0  0  0  0  0  0
   13.2154    4.1043   23.5289 Cl  0  0  0  0  0  0  0  0  0  0  0  0
   13.2429    1.4966   22.7028 C   0  0  0  0  0  0  0  0  0  0  0  0
   12.6487    0.2719   22.3693 C   0  0  0  0  0  0  0  0  0  0  0  0
   13.8039   -1.1532   21.7796 Br  0  0  0  0  0  0  0  0  0  0  0  0
  1  2  3  0
  2  3  1  0
  3  4  1  0
  4  5  2  0
  4  6  1  0
  6  7  2  0
  7  8  1  0
  8  9  2  0
  9 10  1  0
  9 11  1  0
 11 12  2  0
 12 13  1  0
 12  6  1  0
M  END
>  <Hit>  (498) 
Mpro-x0946_0

>  <Receptor>  (498) 
Mpro-x0874_0

>  <SCORE>  (498) 
-8.9897899999999993

>  <SCORE.norm>  (498) 
-0.69152199999999997

>  <SCORE.heavy>  (498) 
13

>  <OrigSmiles>  (498) 
C#CCC(=O)c1ccc(Cl)cc1Br

>  <SuCOS_Score>  (498) 
0.36014024849173681

>  <Max_SuCOS_Score>  (498) 
0.38450984132204802

>  <Cum_SuCOS_Score>  (498) 
4.4480051139268459

>  <TransFSScore_50nM>  (498) 
0.039730000000000001

>  <TransFSScore_1uM>  (498) 
0.068261000000000002

>  <TransFSScore_10nM>  (498) 
0.0018929999999999999

>  <TransFSScore_200nM>  (498) 
0.076338000000000003

>  <TransFSScore>  (498) 
0.0465555

>  <FeatureSteinScore>  (498) 
0.46147626294994359

>  <XCos_RefMols>  (498) 
x1093_0,x0104_0

>  <XCos_NumHits>  (498) 
2

>  <XCos_Score1>  (498) 
9.7653

>  <XCos_Score2>  (498) 
0.1103

>  <XCos_Score3>  (498) 
0.0113

$$$$
C#CCC(=O)c1ccc(Cl)cc1Br
     RDKit          3D

 13 13  0  0  0  0  0  0  0  0999 V2000
   10.0394   -4.8230   25.1087 C   0  0  0  0  0  0  0  0  0  0  0  0
    9.8801   -3.7248   24.6376 C   0  0  0  0  0  0  0  0  0  0  0  0
    9.6871   -2.3884   24.0662 C   0  0  0  0  0  0  0  0  0  0  0  0
   10.9739   -1.8860   23.4782 C   0  0  0  0  0  0  0  0  0  0  0  0
   11.7106   -2.7001   22.8589 O   0  0  0  0  0  0  0  0  0  0  0  0
   11.3613   -0.4545   23.5675 C   0  0  0  0  0  0  0  0  0  0  0  0
   10.6108    0.4130   24.3848 C   0  0  0  0  0  0  0  0  0  0  0  0
   10.9284    1.7705   24.4699 C   0  0  0  0  0  0  0  0  0  0  0  0
   12.0109    2.2790   23.7504 C   0  0  0  0  0  0  0  0  0  0  0  0
   12.4162    3.9820   23.8635 Cl  0  0  0  0  0  0  0  0  0  0  0  0
   12.7718    1.4319   22.9394 C   0  0  0  0  0  0  0  0  0  0  0  0
   12.4512    0.0717   22.8330 C   0  0  0  0  0  0  0  0  0  0  0  0
   13.5449   -1.0190   21.6810 Br  0  0  0  0  0  0  0  0  0  0  0  0
  1  2  3  0
  2  3  1  0
  3  4  1  0
  4  5  2  0
  4  6  1  0
  6  7  2  0
  7  8  1  0
  8  9  2  0
  9 10  1  0
  9 11  1  0
 11 12  2  0
 12 13  1  0
 12  6  1  0
M  END
>  <Hit>  (499) 
Mpro-x0946_0

>  <Receptor>  (499) 
Mpro-x1249_0

>  <SCORE>  (499) 
-9.0843399999999992

>  <SCORE.norm>  (499) 
-0.69879500000000005

>  <SCORE.heavy>  (499) 
13

>  <OrigSmiles>  (499) 
C#CCC(=O)c1ccc(Cl)cc1Br

>  <SuCOS_Score>  (499) 
0.35254066583795168

>  <Max_SuCOS_Score>  (499) 
0.45486652777403058

>  <Cum_SuCOS_Score>  (499) 
4.9855476983158367

>  <TransFSScore_50nM>  (499) 
0.007221

>  <TransFSScore_1uM>  (499) 
0.10498200000000001

>  <TransFSScore_10nM>  (499) 
0.00078299999999999995

>  <TransFSScore_200nM>  (499) 
0.027333

>  <TransFSScore>  (499) 
0.035079750000000007

>  <FeatureSteinScore>  (499) 
0.4807373935310168

>  <XCos_RefMols>  (499) 
x0104_0,x1334_0

>  <XCos_NumHits>  (499) 
2

>  <XCos_Score1>  (499) 
9.8012

>  <XCos_Score2>  (499) 
0.1107

>  <XCos_Score3>  (499) 
0.0113

$$$$
C#CCC(=O)c1ccc(Cl)cc1Br
     RDKit          3D

 13 13  0  0  0  0  0  0  0  0999 V2000
   10.0872   -4.8144   25.0982 C   0  0  0  0  0  0  0  0  0  0  0  0
    9.9142   -3.7392   24.5810 C   0  0  0  0  0  0  0  0  0  0  0  0
    9.7022   -2.4313   23.9533 C   0  0  0  0  0  0  0  0  0  0  0  0
   10.9950   -1.9083   23.3972 C   0  0  0  0  0  0  0  0  0  0  0  0
   11.7496   -2.7056   22.7777 O   0  0  0  0  0  0  0  0  0  0  0  0
   11.3685   -0.4753   23.5178 C   0  0  0  0  0  0  0  0  0  0  0  0
   10.5922    0.3733   24.3309 C   0  0  0  0  0  0  0  0  0  0  0  0
   10.8966    1.7317   24.4445 C   0  0  0  0  0  0  0  0  0  0  0  0
   11.9913    2.2599   23.7583 C   0  0  0  0  0  0  0  0  0  0  0  0
   12.3799    3.9640   23.9073 Cl  0  0  0  0  0  0  0  0  0  0  0  0
   12.7776    1.4317   22.9521 C   0  0  0  0  0  0  0  0  0  0  0  0
   12.4707    0.0709   22.8171 C   0  0  0  0  0  0  0  0  0  0  0  0
   13.5996   -0.9929   21.6740 Br  0  0  0  0  0  0  0  0  0  0  0  0
  1  2  3  0
  2  3  1  0
  3  4  1  0
  4  5  2  0
  4  6  1  0
  6  7  2  0
  7  8  1  0
  8  9  2  0
  9 10  1  0
  9 11  1  0
 11 12  2  0
 12 13  1  0
 12  6  1  0
M  END
>  <Hit>  (500) 
Mpro-x0946_0

>  <Receptor>  (500) 
Mpro-x1249_0

>  <SCORE>  (500) 
-9.0924399999999999

>  <SCORE.norm>  (500) 
-0.69941900000000001

>  <SCORE.heavy>  (500) 
13

>  <OrigSmiles>  (500) 
C#CCC(=O)c1ccc(Cl)cc1Br

>  <SuCOS_Score>  (500) 
0.35027369207363646

>  <Max_SuCOS_Score>  (500) 
0.45229325774535967

>  <Cum_SuCOS_Score>  (500) 
4.9949058861094429

>  <TransFSScore_50nM>  (500) 
0.0070920000000000002

>  <TransFSScore_1uM>  (500) 
0.11354400000000001

>  <TransFSScore_10nM>  (500) 
0.00067900000000000002

>  <TransFSScore_200nM>  (500) 
0.030707999999999999

>  <TransFSScore>  (500) 
0.038005750000000005

>  <FeatureSteinScore>  (500) 
0.47902634279072748

>  <XCos_RefMols>  (500) 
x0104_0,x1334_0

>  <XCos_NumHits>  (500) 
2

>  <XCos_Score1>  (500) 
9.7225

>  <XCos_Score2>  (500) 
0.1099

>  <XCos_Score3>  (500) 
0.0113

$$$$
